@<TRIPOS>MOLECULE
008_c2
46   51    1
SMALL
USER_CHARGES


@<TRIPOS>ATOM
      1 Fe1         0.0000    0.0000    0.0000 Fe        1 UNK         0.0000 
      2 C2          3.3434    2.0997    1.1964 C.ar      1 UNK         0.0000 
      3 C3          1.9857    2.3961    1.2174 C.ar      1 UNK         0.0000 
      4 C4          1.3027    2.3838   -0.0032 C.ar      1 UNK         0.0000 
      5 O5          0.0000    2.0800    0.0000 O.co2     1 UNK         0.0000 
      6 C6          1.9859    2.3927   -1.2227 C.ar      1 UNK         0.0000 
      7 O7          1.3490    2.5105   -2.4044 O.3       1 UNK         0.0000 
      8 C8          3.3475    2.1133   -1.1992 C.ar      1 UNK         0.0000 
      9 C9          3.8971    1.6121   -0.0031 C.ar      1 UNK         0.0000 
     10 C10         3.4420    0.1781   -0.0078 C.2       1 UNK         0.0000 
     11 O11         2.0785   -0.0803    0.0000 O.co2     1 UNK         0.0000 
     12 O12         4.2481   -0.7379   -0.0250 O.co2     1 UNK         0.0000 
     13 H13         0.4005    2.6885   -2.4601 H         1 UNK         0.0000 
     14 H14         3.8239    1.9148   -2.1518 H         1 UNK         0.0000 
     15 C15         1.2483   -2.0895    3.3400 C.ar      1 UNK         0.0000 
     16 C16         1.2485   -2.3859    1.9803 C.ar      1 UNK         0.0000 
     17 C17         0.0193   -2.3951    1.3158 C.ar      1 UNK         0.0000 
     18 O18         0.0000   -2.0800    0.0000 O.co2     1 UNK         0.0000 
     19 C19        -1.1806   -2.4448    2.0558 C.ar      1 UNK         0.0000 
     20 O20        -2.3732   -2.6672    1.4921 O.3       1 UNK         0.0000 
     21 C21        -1.1336   -2.1303    3.4076 C.ar      1 UNK         0.0000 
     22 C22         0.0613   -1.6095    3.9235 C.ar      1 UNK         0.0000 
     23 C23         0.0139   -0.1830    3.4460 C.2       1 UNK         0.0000 
     24 O24         0.0000    0.0520    2.0793 O.co2     1 UNK         0.0000 
     25 O25        -0.0692    0.7442    4.2360 O.co2     1 UNK         0.0000 
     26 H26        -2.3982   -3.1390    0.6599 H         1 UNK         0.0000 
     27 H27        -2.0788   -1.9721    3.9168 H         1 UNK         0.0000 
     28 C28        -2.0596    1.4034   -3.2751 C.ar      1 UNK         0.0000 
     29 C29        -2.3477    1.3500   -1.9106 C.ar      1 UNK         0.0000 
     30 C30        -2.4116    0.0874   -1.3110 C.ar      1 UNK         0.0000 
     31 O31        -2.0800    0.0000    0.0000 O.co2     1 UNK         0.0000 
     32 C32        -2.5269   -1.0707   -2.1186 C.ar      1 UNK         0.0000 
     33 O33        -2.8280   -2.2847   -1.6389 O.3       1 UNK         0.0000 
     34 C34        -2.2073   -0.9627   -3.4649 C.ar      1 UNK         0.0000 
     35 C35        -1.6287    0.2281   -3.9125 C.ar      1 UNK         0.0000 
     36 C36        -0.2078    0.0858   -3.4455 C.2       1 UNK         0.0000 
     37 O37         0.0285    0.0000   -2.0798 O.co2     1 UNK         0.0000 
     38 O38         0.7081   -0.0270   -4.2394 O.co2     1 UNK         0.0000 
     39 H39        -3.4070   -2.3545   -0.8751 H         1 UNK         0.0000 
     40 H40        -2.1023   -1.8823   -4.0284 H         1 UNK         0.0000 
     41 H41        -2.5186    2.2377   -1.3197 H         1 UNK         0.0000 
     42 H42        -2.1699    2.3326   -3.8143 H         1 UNK         0.0000 
     43 H43         2.1569   -2.6042    1.4385 H         1 UNK         0.0000 
     44 H44         2.1330   -2.2205    3.9454 H         1 UNK         0.0000 
     45 H45         3.9705    2.2334    2.0655 H         1 UNK         0.0000 
     46 H46         1.4972    2.6244    2.1532 H         1 UNK         0.0000 
@<TRIPOS>BOND
     1    1    5 nc   
     2    1   11 nc   
     3    1   18 nc   
     4    1   24 nc   
     5    1   31 nc   
     6    1   37 nc   
     7    2    3 ar   
     8    2    9 ar   
     9    2   45 1    
    10    3    4 ar   
    11    3   46 1    
    12    4    5 1    
    13    4    6 ar   
    14    6    8 ar   
    15    6    7 1    
    16    7   13 1    
    17    8    9 ar   
    18    8   14 1    
    19    9   10 1    
    20   10   11 1    
    21   10   12 2    
    22   15   22 ar   
    23   15   16 ar   
    24   15   44 1    
    25   16   17 ar   
    26   16   43 1    
    27   17   18 1    
    28   17   19 ar   
    29   19   21 ar   
    30   19   20 1    
    31   20   26 1    
    32   21   27 1    
    33   21   22 ar   
    34   22   23 1    
    35   23   25 2    
    36   23   24 1    
    37   28   29 ar   
    38   28   35 ar   
    39   28   42 1    
    40   29   30 ar   
    41   29   41 1    
    42   30   31 1    
    43   30   32 ar   
    44   32   33 1    
    45   32   34 ar   
    46   33   39 1    
    47   34   35 ar   
    48   34   40 1    
    49   35   36 1    
    50   36   37 1    
    51   36   38 2    
@<TRIPOS>SUBSTRUCTURE
     1 UNK         1 GROUP             0       ****    0 ROOT    
