@<TRIPOS>MOLECULE
185_J13_c1
99   106    1
SMALL
USER_CHARGES


@<TRIPOS>ATOM
      1 Fe1         0.0004    0.1506   -0.1526 Fe        1 UNK         0.0000 
      2 C2         -2.2953   -5.0690   -0.2480 C.ar      1 UNK         0.0000 
      3 C3         -3.3357   -5.7502    0.3779 C.ar      1 UNK         0.0000 
      4 C4         -3.9030   -5.2420    1.5398 C.ar      1 UNK         0.0000 
      5 C5         -3.4062   -4.0623    2.0886 C.ar      1 UNK         0.0000 
      6 C6         -2.3461   -3.3846    1.4924 C.ar      1 UNK         0.0000 
      7 Cl7        -1.7850   -1.9982    2.3683 Cl        1 UNK         0.0000 
      8 C8         -1.7823   -3.8603    0.2790 C.ar      1 UNK         0.0000 
      9 C9         -0.6550   -3.1203   -0.4422 C.2       1 UNK         0.0000 
     10 O10        -0.3424   -1.9538   -0.1739 O.co2     1 UNK         0.0000 
     11 N11         0.0268   -3.8177   -1.3646 N.am      1 UNK         0.0000 
     12 C12         1.2066   -3.3351   -2.1030 C.3       1 UNK         0.0000 
     13 C13         2.3893   -4.3258   -2.0107 C.3       1 UNK         0.0000 
     14 C14         3.7643   -3.6727   -2.2732 C.3       1 UNK         0.0000 
     15 C15         3.9887   -3.1769   -3.7271 C.3       1 UNK         0.0000 
     16 C16         4.9217   -1.9440   -3.8969 C.3       1 UNK         0.0000 
     17 H17         4.9385   -1.7255   -4.9662 H         1 UNK         0.0000 
     18 C18         6.4339   -2.1519   -3.5472 C.3       1 UNK         0.0000 
     19 O19         6.6683   -2.7651   -2.2932 O.3       1 UNK         0.0000 
     20 N20         4.2955   -0.7204   -3.3677 N.am      1 UNK         0.0000 
     21 C21         4.3881   -0.1925   -2.1406 C.2       1 UNK         0.0000 
     22 O22         5.2060   -0.5824   -1.2966 O.2       1 UNK         0.0000 
     23 C23         3.4416    0.9732   -1.9301 C.ar      1 UNK         0.0000 
     24 C24         2.4139    0.9616   -0.9504 C.ar      1 UNK         0.0000 
     25 O25         2.1708   -0.0956   -0.2699 O.co2     1 UNK         0.0000 
     26 C26         1.5942    2.1128   -0.7998 C.ar      1 UNK         0.0000 
     27 O27         0.6833    2.2142    0.0797 O.co2     1 UNK         0.0000 
     28 C28         1.7258    3.1859   -1.6695 C.ar      1 UNK         0.0000 
     29 C29         2.6767    3.1627   -2.6815 C.ar      1 UNK         0.0000 
     30 C30         3.5385    2.0762   -2.7943 C.ar      1 UNK         0.0000 
     31 H31        -1.9040   -5.4928   -1.1610 H         1 UNK         0.0000 
     32 H32        -3.7179   -6.6656   -0.0463 H         1 UNK         0.0000 
     33 H33        -4.7239   -5.7510    2.0219 H         1 UNK         0.0000 
     34 H34        -3.8457   -3.6614    2.9901 H         1 UNK         0.0000 
     35 H35        -0.3893   -4.6811   -1.6563 H         1 UNK         0.0000 
     36 H36         1.5311   -2.3697   -1.7075 H         1 UNK         0.0000 
     37 H37         0.9298   -3.1217   -3.1346 H         1 UNK         0.0000 
     38 H38         2.2326   -5.1542   -2.7027 H         1 UNK         0.0000 
     39 H39         2.4145   -4.7587   -1.0094 H         1 UNK         0.0000 
     40 H40         4.5522   -4.3782   -2.0172 H         1 UNK         0.0000 
     41 H41         3.8817   -2.8507   -1.5668 H         1 UNK         0.0000 
     42 H42         3.0272   -2.9054   -4.1643 H         1 UNK         0.0000 
     43 H43         4.3546   -3.9955   -4.3513 H         1 UNK         0.0000 
     44 H44         6.9631   -1.1962   -3.5658 H         1 UNK         0.0000 
     45 H45         6.9168   -2.7526   -4.3165 H         1 UNK         0.0000 
     46 H46         6.2317   -2.2072   -1.6322 H         1 UNK         0.0000 
     47 H47         3.5490   -0.3096   -3.9024 H         1 UNK         0.0000 
     48 H48         1.0585    4.0385   -1.5828 H         1 UNK         0.0000 
     49 H49         2.7498    3.9828   -3.3731 H         1 UNK         0.0000 
     50 H50         4.2976    2.0814   -3.5635 H         1 UNK         0.0000 
     51 C51         2.3070    0.2461    5.0575 C.ar      1 UNK         0.0000 
     52 C52         3.3518   -0.3779    5.7344 C.ar      1 UNK         0.0000 
     53 C53         3.9161   -1.5410    5.2253 C.ar      1 UNK         0.0000 
     54 C54         3.4126   -2.0923    4.0502 C.ar      1 UNK         0.0000 
     55 C55         2.3481   -1.4982    3.3768 C.ar      1 UNK         0.0000 
     56 Cl56        1.7779   -2.3776    1.9971 Cl        1 UNK         0.0000 
     57 C57         1.7874   -0.2831    3.8544 C.ar      1 UNK         0.0000 
     58 C58         0.6557    0.4354    3.1167 C.2       1 UNK         0.0000 
     59 O59         0.3411    0.1686    1.9532 O.co2     1 UNK         0.0000 
     60 N60        -0.0246    1.3583    3.8178 N.am      1 UNK         0.0000 
     61 C61        -1.2031    2.0992    3.3358 C.3       1 UNK         0.0000 
     62 C62        -2.3859    2.0086    4.3268 C.3       1 UNK         0.0000 
     63 C63        -3.7603    2.2740    3.6736 C.3       1 UNK         0.0000 
     64 C64        -3.9823    3.7289    3.1791 C.3       1 UNK         0.0000 
     65 C65        -4.9138    3.9016    1.9455 C.3       1 UNK         0.0000 
     66 H66        -4.9287    4.9710    1.7280 H         1 UNK         0.0000 
     67 C67        -6.4265    3.5537    2.1515 C.3       1 UNK         0.0000 
     68 O68        -6.6636    2.2997    2.7636 O.3       1 UNK         0.0000 
     69 N69        -4.2867    3.3736    0.7222 N.am      1 UNK         0.0000 
     70 C70        -4.3818    2.1473    0.1912 C.2       1 UNK         0.0000 
     71 O71        -5.2015    1.3047    0.5786 O.2       1 UNK         0.0000 
     72 C72        -3.4347    1.9378   -0.9740 C.ar      1 UNK         0.0000 
     73 C73        -2.4100    0.9547   -0.9643 C.ar      1 UNK         0.0000 
     74 O74        -2.1704    0.2704    0.0915 O.co2     1 UNK         0.0000 
     75 C75        -1.5897    0.8046   -2.1153 C.ar      1 UNK         0.0000 
     76 O76        -0.6805   -0.0759   -2.2163 O.co2     1 UNK         0.0000 
     77 C77        -1.7179    1.6779   -3.1862 C.ar      1 UNK         0.0000 
     78 C78        -2.6652    2.6926   -3.1611 C.ar      1 UNK         0.0000 
     79 C79        -3.5279    2.8054   -2.0749 C.ar      1 UNK         0.0000 
     80 H80         1.9183    1.1607    5.4816 H         1 UNK         0.0000 
     81 H81         3.7394    0.0480    6.6464 H         1 UNK         0.0000 
     82 H82         4.7404   -2.0216    5.7306 H         1 UNK         0.0000 
     83 H83         3.8494   -2.9951    3.6488 H         1 UNK         0.0000 
     84 H84         0.3928    1.6484    4.6804 H         1 UNK         0.0000 
     85 H85        -1.5289    1.7056    2.3700 H         1 UNK         0.0000 
     86 H86        -0.9243    3.1306    3.1233 H         1 UNK         0.0000 
     87 H87        -2.2280    2.6998    5.1556 H         1 UNK         0.0000 
     88 H88        -2.4128    1.0069    4.7590 H         1 UNK         0.0000 
     89 H89        -4.5488    2.0185    4.3787 H         1 UNK         0.0000 
     90 H90        -3.8788    1.5686    2.8509 H         1 UNK         0.0000 
     91 H91        -3.0199    4.1652    2.9094 H         1 UNK         0.0000 
     92 H92        -4.3485    4.3524    3.9982 H         1 UNK         0.0000 
     93 H93        -6.9545    3.5736    1.1952 H         1 UNK         0.0000 
     94 H94        -6.9089    4.3236    2.7520 H         1 UNK         0.0000 
     95 H95        -6.2284    1.6382    2.2046 H         1 UNK         0.0000 
     96 H96        -3.5387    3.9067    0.3135 H         1 UNK         0.0000 
     97 H97        -1.0498    1.5913   -4.0383 H         1 UNK         0.0000 
     98 H98        -2.7350    3.3870   -3.9794 H         1 UNK         0.0000 
     99 H99        -4.2844    3.5771   -2.0784 H         1 UNK         0.0000 
@<TRIPOS>BOND
     1    1   10 nc   
     2    1   25 nc   
     3    1   27 nc   
     4    1   59 nc   
     5    1   74 nc   
     6    1   76 nc   
     7    2    8 ar   
     8    2    3 ar   
     9    2   31 1    
    10    3    4 ar   
    11    3   32 1    
    12    4    5 ar   
    13    4   33 1    
    14    5   34 1    
    15    5    6 ar   
    16    6    7 1    
    17    6    8 ar   
    18    8    9 1    
    19    9   10 2    
    20    9   11 am   BACKBONE|DICT|INTERRES
    21   11   12 1    
    22   11   35 1    
    23   12   13 1    
    24   12   36 1    
    25   12   37 1    
    26   13   39 1    
    27   13   14 1    
    28   13   38 1    
    29   14   40 1    
    30   14   41 1    
    31   14   15 1    
    32   15   16 1    
    33   15   42 1    
    34   15   43 1    
    35   16   17 1    
    36   16   20 1    
    37   16   18 1    
    38   18   19 1    
    39   18   44 1    
    40   18   45 1    
    41   19   46 1    
    42   20   21 am   BACKBONE|DICT|INTERRES
    43   20   47 1    
    44   21   23 1    
    45   21   22 2    
    46   23   24 ar   
    47   23   30 ar   
    48   24   26 ar   
    49   24   25 1    
    50   26   27 1    
    51   26   28 ar   
    52   28   48 1    
    53   28   29 ar   
    54   29   30 ar   
    55   29   49 1    
    56   30   50 1    
    57   51   80 1    
    58   51   52 ar   
    59   51   57 ar   
    60   52   81 1    
    61   52   53 ar   
    62   53   82 1    
    63   53   54 ar   
    64   54   55 ar   
    65   54   83 1    
    66   55   57 ar   
    67   55   56 1    
    68   57   58 1    
    69   58   59 2    
    70   58   60 am   BACKBONE|DICT|INTERRES
    71   60   84 1    
    72   60   61 1    
    73   61   62 1    
    74   61   85 1    
    75   61   86 1    
    76   62   88 1    
    77   62   87 1    
    78   62   63 1    
    79   63   89 1    
    80   63   64 1    
    81   63   90 1    
    82   64   92 1    
    83   64   65 1    
    84   64   91 1    
    85   65   66 1    
    86   65   67 1    
    87   65   69 1    
    88   67   68 1    
    89   67   94 1    
    90   67   93 1    
    91   68   95 1    
    92   69   70 am   BACKBONE|DICT|INTERRES
    93   69   96 1    
    94   70   71 2    
    95   70   72 1    
    96   72   73 ar   
    97   72   79 ar   
    98   73   74 1    
    99   73   75 ar   
   100   75   76 1    
   101   75   77 ar   
   102   77   78 ar   
   103   77   97 1    
   104   78   79 ar   
   105   78   98 1    
   106   79   99 1    
@<TRIPOS>SUBSTRUCTURE
     1 UNK         1 GROUP             0       ****    0 ROOT    
