@<TRIPOS>MOLECULE
242_c1
151   159    1
SMALL
USER_CHARGES


@<TRIPOS>ATOM
      1 Fe1         4.9835    1.0197    1.0462 Fe        1 UNK         0.0000 
      2 C2          5.2647    1.3378   -4.3858 C.ar      1 UNK         0.0000 
      3 C3          6.6376    1.3394   -4.1128 C.ar      1 UNK         0.0000 
      4 C4          7.0935    1.2936   -2.7942 C.ar      1 UNK         0.0000 
      5 C5          6.1668    1.1686   -1.7650 C.ar      1 UNK         0.0000 
      6 O6          6.5197    1.1048   -0.5463 O.co2     1 UNK         0.0000 
      7 C7          4.7884    1.1222   -2.0411 C.ar      1 UNK         0.0000 
      8 O8          4.0499    0.9221   -1.0289 O.co2     1 UNK         0.0000 
      9 C9          4.3100    1.2760   -3.3583 C.ar      1 UNK         0.0000 
     10 C10         2.8415    1.2908   -3.7221 C.2       1 UNK         0.0000 
     11 O11         2.1384    2.3121   -3.7238 O.2       1 UNK         0.0000 
     12 N12         2.4054    0.1184   -4.2310 N.am      1 UNK         0.0000 
     13 C13         1.0382   -0.2106   -4.6776 C.3       1 UNK         0.0000 
     14 H14         1.0856   -1.1981   -5.1343 H         1 UNK         0.0000 
     15 C15         0.4575    0.7886   -5.7579 C.3       1 UNK         0.0000 
     16 C16         1.0877    0.7114   -7.1667 C.3       1 UNK         0.0000 
     17 C17         0.3475    1.6010   -8.1893 C.3       1 UNK         0.0000 
     18 N18         0.9172    1.5078   -9.5515 N.pl3     1 UNK         0.0000 
     19 C19         0.4555    2.1044  -10.6674 C.cat     1 UNK         0.0000 
     20 N20        -0.6247    2.8879  -10.6231 N.pl3     1 UNK         0.0000 
     21 N21         1.0848    1.9142  -11.8359 N.pl3     1 UNK         0.0000 
     22 H22         0.7820    2.3545  -12.7023 H         1 UNK         0.0000 
     23 H23         1.9000    1.3149  -11.9109 H         1 UNK         0.0000 
     24 C24         0.1324   -0.4590   -3.4476 C.2       1 UNK         0.0000 
     25 O25         0.0884   -1.5804   -2.9468 O.2       1 UNK         0.0000 
     26 N26        -0.6767    0.5428   -3.0809 N.am      1 UNK         0.0000 
     27 C27        -1.5719    0.6148   -1.9069 C.3       1 UNK         0.0000 
     28 H28        -0.8860    0.7943   -1.0664 H         1 UNK         0.0000 
     29 C29        -2.5481   -0.6054   -1.6327 C.3       1 UNK         0.0000 
     30 H30        -3.5259   -0.1909   -1.3512 H         1 UNK         0.0000 
     31 C31        -2.8741   -1.5066   -2.8600 C.3       1 UNK         0.0000 
     32 O32        -2.1115   -1.2498   -0.4137 O.3       1 UNK         0.0000 
     33 C33        -2.7186   -2.3442    0.1207 C.2       1 UNK         0.0000 
     34 O34        -3.5016   -3.0689   -0.4937 O.2       1 UNK         0.0000 
     35 C35        -2.6056   -2.4481    1.6519 C.3       1 UNK         0.0000 
     36 H36        -3.2642   -3.2738    1.9208 H         1 UNK         0.0000 
     37 N37        -1.2664   -2.8267    2.1891 N.am      1 UNK         0.0000 
     38 C38        -0.7884   -4.0837    2.1561 C.2       1 UNK         0.0000 
     39 O39        -1.2443   -4.9118    1.3638 O.2       1 UNK         0.0000 
     40 C40         0.1816   -4.5535    3.2975 C.3       1 UNK         0.0000 
     41 H41        -0.4045   -4.3740    4.1976 H         1 UNK         0.0000 
     42 C42         0.5546   -6.0663    3.2618 C.3       1 UNK         0.0000 
     43 C43        -0.6273   -7.0553    3.3922 C.3       1 UNK         0.0000 
     44 C44        -0.2150   -8.5013    3.1009 C.3       1 UNK         0.0000 
     45 N45        -1.3729   -9.4098    3.1984 N.pl3     1 UNK         0.0000 
     46 C46        -1.6501  -10.3308    4.1341 C.cat     1 UNK         0.0000 
     47 N47        -0.8145  -10.5481    5.1509 N.pl3     1 UNK         0.0000 
     48 N48        -2.7795  -11.0442    4.0435 N.pl3     1 UNK         0.0000 
     49 H49        -3.0299  -11.7525    4.7268 H         1 UNK         0.0000 
     50 H50        -3.4369  -10.9333    3.2761 H         1 UNK         0.0000 
     51 N51         1.4268   -3.8047    3.5577 N.am      1 UNK         0.0000 
     52 C52         2.1359   -3.0366    2.7148 C.2       1 UNK         0.0000 
     53 O53         1.6981   -2.7912    1.5942 O.2       1 UNK         0.0000 
     54 C54         3.5145   -2.6034    3.2131 C.ar      1 UNK         0.0000 
     55 C55         4.2285   -1.5278    2.6474 C.ar      1 UNK         0.0000 
     56 O56         3.7344   -0.7184    1.8029 O.co2     1 UNK         0.0000 
     57 C57         5.5448   -1.2396    3.0425 C.ar      1 UNK         0.0000 
     58 O58         6.1299   -0.2770    2.4705 O.co2     1 UNK         0.0000 
     59 C59         6.1541   -1.9687    4.0644 C.ar      1 UNK         0.0000 
     60 C60         5.4365   -2.9781    4.7021 C.ar      1 UNK         0.0000 
     61 C61         4.1452   -3.2965    4.2759 C.ar      1 UNK         0.0000 
     62 C62        -3.2980   -1.2489    2.3651 C.3       1 UNK         0.0000 
     63 H63        -4.3025   -1.1409    1.9295 H         1 UNK         0.0000 
     64 C64        -3.4465   -1.4414    3.8867 C.3       1 UNK         0.0000 
     65 O65        -2.5501   -0.0867    2.0597 O.3       1 UNK         0.0000 
     66 C66        -3.0743    1.1404    2.1458 C.2       1 UNK         0.0000 
     67 O67        -4.1080    1.4294    2.7503 O.2       1 UNK         0.0000 
     68 C68        -2.3185    2.1033    1.2352 C.3       1 UNK         0.0000 
     69 H69        -1.4050    1.6219    0.8655 H         1 UNK         0.0000 
     70 C70        -3.2723    2.3635    0.0213 C.3       1 UNK         0.0000 
     71 H71        -3.8350    1.4500   -0.2062 H         1 UNK         0.0000 
     72 C72        -4.3468    3.4511    0.2258 C.3       1 UNK         0.0000 
     73 O73        -2.5470    2.7384   -1.1441 O.3       1 UNK         0.0000 
     74 C74        -2.3975    1.8809   -2.1817 C.2       1 UNK         0.0000 
     75 O75        -2.8739    2.1449   -3.2901 O.2       1 UNK         0.0000 
     76 N76        -1.8121    3.3398    1.8895 N.am      1 UNK         0.0000 
     77 C77        -1.3311    3.4963    3.1392 C.2       1 UNK         0.0000 
     78 O78        -1.5269    2.6951    4.0583 O.2       1 UNK         0.0000 
     79 C79        -0.6457    4.8534    3.4638 C.3       1 UNK         0.0000 
     80 H80        -0.9811    5.5756    2.7173 H         1 UNK         0.0000 
     81 C81        -1.0878    5.3219    4.8646 C.3       1 UNK         0.0000 
     82 C82        -0.7117    6.7382    5.3115 C.3       1 UNK         0.0000 
     83 C83        -1.2828    6.9791    6.7168 C.3       1 UNK         0.0000 
     84 N84        -1.0147    8.3373    7.2194 N.pl3     1 UNK         0.0000 
     85 C85        -1.8821    9.3530    7.3629 C.cat     1 UNK         0.0000 
     86 N86        -3.1579    9.2191    6.9936 N.pl3     1 UNK         0.0000 
     87 N87        -1.4600   10.5078    7.8955 N.pl3     1 UNK         0.0000 
     88 H88        -0.5012   10.6391    8.2034 H         1 UNK         0.0000 
     89 H89        -2.0820   11.2957    8.0612 H         1 UNK         0.0000 
     90 N90         0.8195    4.7714    3.4067 N.am      1 UNK         0.0000 
     91 C91         1.5005    4.5017    2.2733 C.2       1 UNK         0.0000 
     92 O92         0.9199    4.4076    1.1813 O.2       1 UNK         0.0000 
     93 C93         2.9994    4.4837    2.4521 C.ar      1 UNK         0.0000 
     94 C94         3.8176    3.3924    2.1155 C.ar      1 UNK         0.0000 
     95 O95         3.4411    2.2805    1.6258 O.co2     1 UNK         0.0000 
     96 C96         5.2106    3.4837    2.2334 C.ar      1 UNK         0.0000 
     97 O97         5.8339    2.4770    1.7972 O.co2     1 UNK         0.0000 
     98 C98         5.8285    4.6329    2.7203 C.ar      1 UNK         0.0000 
     99 C99         5.0258    5.7113    3.0908 C.ar      1 UNK         0.0000 
    100 C100        3.6316    5.6394    2.9552 C.ar      1 UNK         0.0000 
    101 H101        4.9380    1.3779   -5.4130 H         1 UNK         0.0000 
    102 H102        7.3597    1.3600   -4.9162 H         1 UNK         0.0000 
    103 H103        8.1505    1.2750   -2.5570 H         1 UNK         0.0000 
    104 H104        2.9889   -0.6560   -3.9224 H         1 UNK         0.0000 
    105 H105        0.5238    1.8158   -5.4114 H         1 UNK         0.0000 
    106 H106       -0.6177    0.6247   -5.8726 H         1 UNK         0.0000 
    107 H107        2.1459    0.9653   -7.1262 H         1 UNK         0.0000 
    108 H108        1.0413   -0.3248   -7.4965 H         1 UNK         0.0000 
    109 H109        0.3348    2.6427   -7.8629 H         1 UNK         0.0000 
    110 H110       -0.6944    1.2893   -8.2483 H         1 UNK         0.0000 
    111 H111        1.7589    0.9420   -9.5866 H         1 UNK         0.0000 
    112 H112       -1.1006    3.0429   -9.7476 H         1 UNK         0.0000 
    113 H113       -1.0041    3.3618  -11.4327 H         1 UNK         0.0000 
    114 H114       -0.4646    1.4424   -3.4822 H         1 UNK         0.0000 
    115 H115       -2.9996   -0.9085   -3.7578 H         1 UNK         0.0000 
    116 H116       -3.7876   -2.0775   -2.7380 H         1 UNK         0.0000 
    117 H117       -2.1164   -2.2505   -3.0569 H         1 UNK         0.0000 
    118 H118       -0.6494   -2.1043    2.5554 H         1 UNK         0.0000 
    119 H119        1.1069   -6.2532    2.3380 H         1 UNK         0.0000 
    120 H120        1.2548   -6.2948    4.0667 H         1 UNK         0.0000 
    121 H121       -1.1407   -6.9388    4.3481 H         1 UNK         0.0000 
    122 H122       -1.3798   -6.8264    2.6434 H         1 UNK         0.0000 
    123 H123        0.6698   -8.8140    3.6536 H         1 UNK         0.0000 
    124 H124        0.0820   -8.5579    2.0516 H         1 UNK         0.0000 
    125 H125       -2.0305   -9.2504    2.4385 H         1 UNK         0.0000 
    126 H126       -0.9805  -11.2504    5.8597 H         1 UNK         0.0000 
    127 H127        0.0425  -10.0232    5.2190 H         1 UNK         0.0000 
    128 H128        1.8902   -3.9334    4.4423 H         1 UNK         0.0000 
    129 H129        7.1484   -1.6904    4.3746 H         1 UNK         0.0000 
    130 H130        5.8925   -3.4968    5.5384 H         1 UNK         0.0000 
    131 H131        3.6436   -4.0850    4.8133 H         1 UNK         0.0000 
    132 H132       -3.9459   -2.3857    4.1003 H         1 UNK         0.0000 
    133 H133       -2.4793   -1.4479    4.3735 H         1 UNK         0.0000 
    134 H134       -4.0479   -0.6561    4.3419 H         1 UNK         0.0000 
    135 H135       -3.9147    4.4361    0.3601 H         1 UNK         0.0000 
    136 H136       -4.9722    3.2427    1.0939 H         1 UNK         0.0000 
    137 H137       -5.0169    3.5007   -0.6301 H         1 UNK         0.0000 
    138 H138       -1.3757    3.9728    1.2327 H         1 UNK         0.0000 
    139 H139       -2.1786    5.2389    4.8955 H         1 UNK         0.0000 
    140 H140       -0.7076    4.5830    5.5729 H         1 UNK         0.0000 
    141 H141        0.3749    6.8032    5.3374 H         1 UNK         0.0000 
    142 H142       -1.0571    7.4873    4.6036 H         1 UNK         0.0000 
    143 H143       -0.7462    6.3283    7.4098 H         1 UNK         0.0000 
    144 H144       -2.3259    6.6741    6.8121 H         1 UNK         0.0000 
    145 H145       -0.0418    8.4540    7.4906 H         1 UNK         0.0000 
    146 H146       -3.8467    9.9516    7.0983 H         1 UNK         0.0000 
    147 H147       -3.4857    8.3440    6.6145 H         1 UNK         0.0000 
    148 H148        1.3518    4.6801    4.2589 H         1 UNK         0.0000 
    149 H149        6.9024    4.6640    2.7473 H         1 UNK         0.0000 
    150 H150        5.4945    6.6207    3.4217 H         1 UNK         0.0000 
    151 H151        3.0474    6.5141    3.1542 H         1 UNK         0.0000 
@<TRIPOS>BOND
     1    1    6 nc   
     2    1    8 nc   
     3    1   56 nc   
     4    1   58 nc   
     5    1   95 nc   
     6    1   97 nc   
     7    2    3 ar   
     8    2    9 ar   
     9    2  101 1    
    10    3    4 ar   
    11    3  102 1    
    12    4  103 1    
    13    4    5 ar   
    14    5    6 1    
    15    5    7 ar   
    16    7    8 1    
    17    7    9 ar   
    18    9   10 1    
    19   10   11 2    
    20   10   12 am   BACKBONE|DICT|INTERRES
    21   12   13 1    
    22   12  104 1    
    23   13   14 1    
    24   13   24 1    
    25   13   15 1    
    26   15  105 1    
    27   15   16 1    
    28   15  106 1    
    29   16  107 1    
    30   16   17 1    
    31   16  108 1    
    32   17  109 1    
    33   17   18 1    
    34   17  110 1    
    35   18   19 ar   
    36   18  111 1    
    37   19   20 ar   
    38   19   21 ar   
    39   20  112 1    
    40   20  113 1    
    41   21   22 1    
    42   21   23 1    
    43   24   26 am   BACKBONE|DICT|INTERRES
    44   24   25 2    
    45   26   27 1    
    46   26  114 1    
    47   27   29 1    
    48   27   28 1    
    49   27   74 1    
    50   29   30 1    
    51   29   32 1    
    52   29   31 1    
    53   31  116 1    
    54   31  115 1    
    55   31  117 1    
    56   32   33 1    
    57   33   35 1    
    58   33   34 2    
    59   35   36 1    
    60   35   62 1    
    61   35   37 1    
    62   37  118 1    
    63   37   38 am   BACKBONE|DICT|INTERRES
    64   38   40 1    
    65   38   39 2    
    66   40   51 1    
    67   40   41 1    
    68   40   42 1    
    69   42   43 1    
    70   42  120 1    
    71   42  119 1    
    72   43  121 1    
    73   43   44 1    
    74   43  122 1    
    75   44   45 1    
    76   44  123 1    
    77   44  124 1    
    78   45   46 ar   
    79   45  125 1    
    80   46   47 ar   
    81   46   48 ar   
    82   47  127 1    
    83   47  126 1    
    84   48   49 1    
    85   48   50 1    
    86   51  128 1    
    87   51   52 am   BACKBONE|DICT|INTERRES
    88   52   54 1    
    89   52   53 2    
    90   54   61 ar   
    91   54   55 ar   
    92   55   57 ar   
    93   55   56 1    
    94   57   59 ar   
    95   57   58 1    
    96   59  129 1    
    97   59   60 ar   
    98   60  130 1    
    99   60   61 ar   
   100   61  131 1    
   101   62   63 1    
   102   62   64 1    
   103   62   65 1    
   104   64  132 1    
   105   64  134 1    
   106   64  133 1    
   107   65   66 1    
   108   66   67 2    
   109   66   68 1    
   110   68   69 1    
   111   68   76 1    
   112   68   70 1    
   113   70   71 1    
   114   70   72 1    
   115   70   73 1    
   116   72  135 1    
   117   72  136 1    
   118   72  137 1    
   119   73   74 1    
   120   74   75 2    
   121   76   77 am   BACKBONE|DICT|INTERRES
   122   76  138 1    
   123   77   79 1    
   124   77   78 2    
   125   79   80 1    
   126   79   81 1    
   127   79   90 1    
   128   81   82 1    
   129   81  140 1    
   130   81  139 1    
   131   82  141 1    
   132   82   83 1    
   133   82  142 1    
   134   83   84 1    
   135   83  143 1    
   136   83  144 1    
   137   84  145 1    
   138   84   85 ar   
   139   85   87 ar   
   140   85   86 ar   
   141   86  146 1    
   142   86  147 1    
   143   87   89 1    
   144   87   88 1    
   145   90  148 1    
   146   90   91 am   BACKBONE|DICT|INTERRES
   147   91   92 2    
   148   91   93 1    
   149   93  100 ar   
   150   93   94 ar   
   151   94   95 1    
   152   94   96 ar   
   153   96   98 ar   
   154   96   97 1    
   155   98   99 ar   
   156   98  149 1    
   157   99  100 ar   
   158   99  150 1    
   159  100  151 1    
@<TRIPOS>SUBSTRUCTURE
     1 UNK         1 GROUP             0       ****    0 ROOT    
