@<TRIPOS>MOLECULE
075_c1
60   65    1
SMALL
USER_CHARGES


@<TRIPOS>ATOM
      1 Fe1        -0.0185    0.1680   -0.0615 Fe        1 UNK         0.0000 
      2 O2         -2.0297    1.1352    1.2238 O.co2     1 UNK         0.0000 
      3 N3         -1.3696    1.3533    2.3629 N.am      1 UNK         0.0000 
      4 C4         -1.9095    2.5308    3.0765 C.3       1 UNK         0.0000 
      5 C5         -1.4804    3.9296    2.5134 C.3       1 UNK         0.0000 
      6 C6         -2.1979    4.5519    1.2729 C.3       1 UNK         0.0000 
      7 C7         -1.8772    4.0617   -0.1739 C.3       1 UNK         0.0000 
      8 C8         -0.3965    4.1569   -0.6475 C.3       1 UNK         0.0000 
      9 N9         -0.1254    3.6000   -2.0072 N.3       1 UNK         0.0000 
     10 C10        -0.0248    2.1620   -2.1368 C.3       1 UNK         0.0000 
     11 O11         1.0913    1.8269   -1.3832 O.co2     1 UNK         0.0000 
     12 C12         0.0417    1.4933   -3.5401 C.3       1 UNK         0.0000 
     13 C13        -0.4641   -0.0150   -3.7171 C.3       1 UNK         0.0000 
     14 C14        -0.2241   -1.0661   -2.5832 C.2       1 UNK         0.0000 
     15 O15         0.7978   -1.0283   -1.8776 O.co2     1 UNK         0.0000 
     16 N16        -1.3207   -1.6711   -2.0692 N.am      1 UNK         0.0000 
     17 O17        -1.8123   -1.3518   -0.8703 O.co2     1 UNK         0.0000 
     18 C18        -1.7880   -2.9918   -2.5588 C.3       1 UNK         0.0000 
     19 C19        -0.7806   -4.1824   -2.4592 C.3       1 UNK         0.0000 
     20 C20        -0.4152   -4.7812   -1.0611 C.3       1 UNK         0.0000 
     21 C21         0.1934   -3.7858   -0.0576 C.3       1 UNK         0.0000 
     22 C22         0.8202   -4.3048    1.2666 C.3       1 UNK         0.0000 
     23 N23         0.8995   -3.3394    2.3879 N.am      1 UNK         0.0000 
     24 C24         0.9341   -1.9931    2.3371 C.2       1 UNK         0.0000 
     25 O25         0.9597   -1.3924    1.2546 O.co2     1 UNK         0.0000 
     26 C26         0.8412   -1.1959    3.6714 C.3       1 UNK         0.0000 
     27 C27         0.5039    0.3621    3.7305 C.3       1 UNK         0.0000 
     28 C28        -0.0482    1.0837    2.4849 C.2       1 UNK         0.0000 
     29 O29         0.6718    1.1478    1.4815 O.co2     1 UNK         0.0000 
     30 H30        -3.0027    2.4808    3.0851 H         1 UNK         0.0000 
     31 H31        -1.6443    2.4833    4.1390 H         1 UNK         0.0000 
     32 H32        -0.4012    3.9730    2.3866 H         1 UNK         0.0000 
     33 H33        -1.6908    4.6311    3.3190 H         1 UNK         0.0000 
     34 H34        -3.2794    4.4828    1.4200 H         1 UNK         0.0000 
     35 H35        -1.9868    5.6239    1.2872 H         1 UNK         0.0000 
     36 H36        -2.2709    3.0592   -0.3034 H         1 UNK         0.0000 
     37 H37        -2.4687    4.6677   -0.8628 H         1 UNK         0.0000 
     38 H38        -0.1324    5.2145   -0.6554 H         1 UNK         0.0000 
     39 H39         0.2702    3.7432    0.1136 H         1 UNK         0.0000 
     40 H40        -0.7413    4.0004   -2.7031 H         1 UNK         0.0000 
     41 H41        -0.5034    2.1096   -4.2571 H         1 UNK         0.0000 
     42 H42         1.0794    1.5434   -3.8786 H         1 UNK         0.0000 
     43 H43        -0.0397   -0.4296   -4.6330 H         1 UNK         0.0000 
     44 H44        -1.5500    0.0243   -3.8932 H         1 UNK         0.0000 
     45 H45        -2.7011   -3.2905   -2.0280 H         1 UNK         0.0000 
     46 H46        -2.1153   -2.8752   -3.5965 H         1 UNK         0.0000 
     47 H47         0.1303   -3.9259   -2.9970 H         1 UNK         0.0000 
     48 H48        -1.2240   -4.9986   -3.0296 H         1 UNK         0.0000 
     49 H49         0.2844   -5.6033   -1.2229 H         1 UNK         0.0000 
     50 H50        -1.3049   -5.2330   -0.6187 H         1 UNK         0.0000 
     51 H51         0.9440   -3.1980   -0.5776 H         1 UNK         0.0000 
     52 H52        -0.6134   -3.1263    0.2319 H         1 UNK         0.0000 
     53 H53         0.2023   -5.1362    1.6155 H         1 UNK         0.0000 
     54 H54         1.7944   -4.7612    1.0668 H         1 UNK         0.0000 
     55 H55         0.9440   -3.7621    3.3051 H         1 UNK         0.0000 
     56 H56         0.0298   -1.6887    4.2113 H         1 UNK         0.0000 
     57 H57         1.7192   -1.4005    4.2771 H         1 UNK         0.0000 
     58 H58         1.4507    0.8835    3.8943 H         1 UNK         0.0000 
     59 H59        -0.0659    0.5965    4.6413 H         1 UNK         0.0000 
     60 H60        -0.9624    1.8034   -1.7163 H         1 UNK         0.0000 
@<TRIPOS>BOND
     1    1    2 nc   
     2    1   11 nc   
     3    1   15 nc   
     4    1   17 nc   
     5    1   25 nc   
     6    1   29 nc   
     7    2    3 1    
     8    3   28 am   BACKBONE|DICT|INTERRES
     9    3    4 1    
    10    4   31 1    
    11    4    5 1    
    12    4   30 1    
    13    5   32 1    
    14    5   33 1    
    15    5    6 1    
    16    6   34 1    
    17    6    7 1    
    18    6   35 1    
    19    7    8 1    
    20    7   36 1    
    21    7   37 1    
    22    8   39 1    
    23    8    9 1    
    24    8   38 1    
    25    9   10 1    
    26    9   40 1    
    27   10   11 1    
    28   10   12 1    
    29   10   60 1    
    30   12   13 1    
    31   12   41 1    
    32   12   42 1    
    33   13   14 1    
    34   13   43 1    
    35   13   44 1    
    36   14   16 am   BACKBONE|DICT|INTERRES
    37   14   15 2    
    38   16   17 1    
    39   16   18 1    
    40   18   45 1    
    41   18   19 1    
    42   18   46 1    
    43   19   20 1    
    44   19   47 1    
    45   19   48 1    
    46   20   50 1    
    47   20   21 1    
    48   20   49 1    
    49   21   52 1    
    50   21   22 1    
    51   21   51 1    
    52   22   53 1    
    53   22   23 1    
    54   22   54 1    
    55   23   55 1    
    56   23   24 am   BACKBONE|DICT|INTERRES
    57   24   25 2    
    58   24   26 1    
    59   26   27 1    
    60   26   56 1    
    61   26   57 1    
    62   27   59 1    
    63   27   28 1    
    64   27   58 1    
    65   28   29 2    
@<TRIPOS>SUBSTRUCTURE
     1 UNK         1 GROUP             0       ****    0 ROOT    
