@<TRIPOS>MOLECULE
066_c1
138   143    1
SMALL
USER_CHARGES


@<TRIPOS>ATOM
      1 Fe1        -0.8278    3.0080    0.1683 Fe        1 UNK         0.0000 
      2 O2          4.7637    6.2027   -6.0715 O.3       1 UNK         0.0000 
      3 C3          4.2437    5.2391   -5.1790 C.3       1 UNK         0.0000 
      4 C4          2.7173    5.2339   -5.3393 C.3       1 UNK         0.0000 
      5 C5          1.7930    4.4993   -4.3529 C.2       1 UNK         0.0000 
      6 C6          0.3377    4.9188   -4.6083 C.3       1 UNK         0.0000 
      7 C7          2.1213    3.6128   -3.3573 C.2       1 UNK         0.0000 
      8 C8          3.5012    3.0493   -2.9751 C.3       1 UNK         0.0000 
      9 C9          1.0960    3.1780   -2.4086 C.2       1 UNK         0.0000 
     10 O10         0.5781    4.0029   -1.6300 O.co2     1 UNK         0.0000 
     11 N11         0.7731    1.8516   -2.2774 N.am      1 UNK         0.0000 
     12 O12         0.1389    1.4363   -1.1938 O.co2     1 UNK         0.0000 
     13 C13         0.8181    0.8138   -3.3592 C.3       1 UNK         0.0000 
     14 C14         0.2658   -0.5923   -2.9261 C.3       1 UNK         0.0000 
     15 C15        -0.0699   -1.6425   -3.9799 C.3       1 UNK         0.0000 
     16 C16        -0.9188   -2.8455   -3.4531 C.3       1 UNK         0.0000 
     17 H17        -1.0594   -3.3964   -4.3859 H         1 UNK         0.0000 
     18 C18        -0.2018   -3.9585   -2.6564 C.2       1 UNK         0.0000 
     19 O19         0.9743   -3.8439   -2.3357 O.2       1 UNK         0.0000 
     20 N20        -0.9712   -5.0380   -2.4480 N.am      1 UNK         0.0000 
     21 C21        -0.6335   -6.4698   -2.4142 C.3       1 UNK         0.0000 
     22 H22        -1.4520   -6.8753   -1.8311 H         1 UNK         0.0000 
     23 C23        -0.7813   -7.0304   -3.8505 C.3       1 UNK         0.0000 
     24 O24         0.0677   -6.3650   -4.7699 O.3       1 UNK         0.0000 
     25 C25         0.7155   -6.9463   -1.8111 C.2       1 UNK         0.0000 
     26 O26         1.7688   -6.5908   -2.3278 O.2       1 UNK         0.0000 
     27 N27         0.7363   -7.8910   -0.8600 N.am      1 UNK         0.0000 
     28 C28        -0.3621   -8.5513   -0.1530 C.3       1 UNK         0.0000 
     29 H29        -1.2656   -8.6140   -0.7566 H         1 UNK         0.0000 
     30 C30         0.0717  -10.0172    0.0754 C.3       1 UNK         0.0000 
     31 O31         1.3749  -10.0968    0.6366 O.3       1 UNK         0.0000 
     32 C32        -0.7460   -7.8263    1.1529 C.2       1 UNK         0.0000 
     33 O33        -1.6789   -8.2775    1.8096 O.2       1 UNK         0.0000 
     34 N34        -0.0203   -6.7566    1.5130 N.am      1 UNK         0.0000 
     35 C35        -0.1335   -6.1082    2.8150 C.3       1 UNK         0.0000 
     36 C36        -1.1331   -4.9480    2.7879 C.2       1 UNK         0.0000 
     37 O37        -2.2353   -5.0864    3.3078 O.2       1 UNK         0.0000 
     38 N38        -0.7120   -3.7784    2.2795 N.am      1 UNK         0.0000 
     39 C39        -1.3541   -2.4972    2.6113 C.3       1 UNK         0.0000 
     40 H40        -1.7251   -2.5986    3.6337 H         1 UNK         0.0000 
     41 C41        -0.3118   -1.3397    2.6619 C.3       1 UNK         0.0000 
     42 C42        -0.4930   -0.3117    3.8363 C.3       1 UNK         0.0000 
     43 C43         0.5052    0.9208    3.8697 C.3       1 UNK         0.0000 
     44 N44         0.2779    1.9971    2.8760 N.am      1 UNK         0.0000 
     45 O45        -0.3904    1.5404    1.8568 O.co2     1 UNK         0.0000 
     46 C46         0.6697    3.3070    2.8991 C.2       1 UNK         0.0000 
     47 O47         0.2720    4.1225    2.0381 O.co2     1 UNK         0.0000 
     48 C48         1.7293    3.6951    3.7817 C.2       1 UNK         0.0000 
     49 C49         1.5852    4.0931    5.0601 C.2       1 UNK         0.0000 
     50 C50         0.2541    4.1512    5.8084 C.3       1 UNK         0.0000 
     51 C51         2.8420    4.5452    5.7914 C.3       1 UNK         0.0000 
     52 C52         2.6503    5.3712    7.0638 C.3       1 UNK         0.0000 
     53 O53         3.9318    5.7659    7.5083 O.3       1 UNK         0.0000 
     54 C54        -2.6025   -2.1973    1.7323 C.2       1 UNK         0.0000 
     55 O55        -3.6038   -1.7501    2.2848 O.2       1 UNK         0.0000 
     56 N56        -2.6330   -2.5803    0.4392 N.am      1 UNK         0.0000 
     57 C57        -2.5175   -1.6494   -0.7051 C.3       1 UNK         0.0000 
     58 H58        -1.4629   -1.4050   -0.7975 H         1 UNK         0.0000 
     59 C59        -3.0284   -2.4165   -1.9513 C.2       1 UNK         0.0000 
     60 O60        -4.1848   -2.8282   -1.9030 O.2       1 UNK         0.0000 
     61 N61        -2.3396   -2.6261   -3.0955 N.am      1 UNK         0.0000 
     62 C62        -3.3904   -0.3425   -0.5116 C.3       1 UNK         0.0000 
     63 C63        -3.5683    0.6795   -1.6998 C.3       1 UNK         0.0000 
     64 C64        -4.1653    2.1168   -1.3682 C.3       1 UNK         0.0000 
     65 N65        -3.2497    3.0802   -0.6968 N.am      1 UNK         0.0000 
     66 O66        -2.4821    2.4620    0.1538 O.co2     1 UNK         0.0000 
     67 C67        -3.0425    4.4066   -0.9573 C.2       1 UNK         0.0000 
     68 O68        -1.9640    4.8741   -0.5333 O.co2     1 UNK         0.0000 
     69 C69        -4.0478    5.3175   -1.6931 C.3       1 UNK         0.0000 
     70 C70        -5.1837    5.9075   -0.7964 C.3       1 UNK         0.0000 
     71 O71        -4.7306    6.2955    0.4814 O.3       1 UNK         0.0000 
     72 C72        -6.2863    4.8683   -0.5323 C.3       1 UNK         0.0000 
     73 C73        -5.7330    7.2120   -1.4277 C.3       1 UNK         0.0000 
     74 C74        -6.9473    7.9139   -0.7759 C.3       1 UNK         0.0000 
     75 O75        -6.6912    8.2515    0.5757 O.3       1 UNK         0.0000 
     76 H76         5.7254    6.1916   -6.0385 H         1 UNK         0.0000 
     77 H77         4.6788    4.2730   -5.4437 H         1 UNK         0.0000 
     78 H78         4.5511    5.5091   -4.1650 H         1 UNK         0.0000 
     79 H79         2.4143    6.2813   -5.2924 H         1 UNK         0.0000 
     80 H80         2.4770    4.9001   -6.3481 H         1 UNK         0.0000 
     81 H81        -0.3096    4.0455   -4.6853 H         1 UNK         0.0000 
     82 H82         0.2131    5.4987   -5.5229 H         1 UNK         0.0000 
     83 H83        -0.0155    5.5401   -3.7860 H         1 UNK         0.0000 
     84 H84         3.7518    3.3621   -1.9632 H         1 UNK         0.0000 
     85 H85         3.5123    1.9624   -2.9768 H         1 UNK         0.0000 
     86 H86         4.3314    3.3470   -3.5912 H         1 UNK         0.0000 
     87 H87         1.8209    0.7019   -3.7764 H         1 UNK         0.0000 
     88 H88         0.2192    1.1678   -4.2029 H         1 UNK         0.0000 
     89 H89         0.9376   -1.0282   -2.1851 H         1 UNK         0.0000 
     90 H90        -0.6809   -0.4079   -2.4394 H         1 UNK         0.0000 
     91 H91         0.8634   -2.0334   -4.3914 H         1 UNK         0.0000 
     92 H92        -0.5977   -1.1828   -4.8146 H         1 UNK         0.0000 
     93 H93        -1.9449   -4.8823   -2.6500 H         1 UNK         0.0000 
     94 H94        -1.8120   -6.9431   -4.1958 H         1 UNK         0.0000 
     95 H95        -0.5400   -8.0955   -3.8691 H         1 UNK         0.0000 
     96 H96         0.9433   -6.2900   -4.3586 H         1 UNK         0.0000 
     97 H97         1.6365   -8.2455   -0.5610 H         1 UNK         0.0000 
     98 H98         0.0720  -10.5507   -0.8768 H         1 UNK         0.0000 
     99 H99        -0.6410  -10.5396    0.7181 H         1 UNK         0.0000 
    100 H100        1.5616  -11.0169    0.8540 H         1 UNK         0.0000 
    101 H101        0.7318   -6.4619    0.9100 H         1 UNK         0.0000 
    102 H102        0.8472   -5.7436    3.1199 H         1 UNK         0.0000 
    103 H103       -0.4409   -6.8240    3.5812 H         1 UNK         0.0000 
    104 H104        0.1565   -3.7195    1.7740 H         1 UNK         0.0000 
    105 H105        0.6948   -1.7510    2.7332 H         1 UNK         0.0000 
    106 H106       -0.3350   -0.8630    1.6826 H         1 UNK         0.0000 
    107 H107       -0.3886   -0.8567    4.7696 H         1 UNK         0.0000 
    108 H108       -1.5130    0.0731    3.8307 H         1 UNK         0.0000 
    109 H109        0.5332    1.3396    4.8801 H         1 UNK         0.0000 
    110 H110        1.5128    0.5380    3.6972 H         1 UNK         0.0000 
    111 H111        2.7024    3.6679    3.3083 H         1 UNK         0.0000 
    112 H112       -0.5789    3.7616    5.2199 H         1 UNK         0.0000 
    113 H113       -0.0050    5.1798    6.0586 H         1 UNK         0.0000 
    114 H114        0.2991    3.5603    6.7209 H         1 UNK         0.0000 
    115 H115        3.4397    5.1366    5.0931 H         1 UNK         0.0000 
    116 H116        3.4349    3.6620    6.0194 H         1 UNK         0.0000 
    117 H117        2.1640    4.7799    7.8434 H         1 UNK         0.0000 
    118 H118        2.0410    6.2606    6.8815 H         1 UNK         0.0000 
    119 H119        3.8499    6.2418    8.3408 H         1 UNK         0.0000 
    120 H120       -3.4923   -3.0828    0.2580 H         1 UNK         0.0000 
    121 H121       -2.9486   -2.9658   -3.8234 H         1 UNK         0.0000 
    122 H122       -2.9945    0.1610    0.3658 H         1 UNK         0.0000 
    123 H123       -4.3935   -0.6528   -0.2091 H         1 UNK         0.0000 
    124 H124       -2.6352    0.7900   -2.2485 H         1 UNK         0.0000 
    125 H125       -4.2556    0.2046   -2.3990 H         1 UNK         0.0000 
    126 H126       -5.0107    1.9658   -0.6936 H         1 UNK         0.0000 
    127 H127       -4.6136    2.5364   -2.2751 H         1 UNK         0.0000 
    128 H128       -4.4431    4.8575   -2.6058 H         1 UNK         0.0000 
    129 H129       -3.4464    6.1621   -2.0387 H         1 UNK         0.0000 
    130 H130       -5.3674    6.9543    0.8137 H         1 UNK         0.0000 
    131 H131       -7.0992    5.2605    0.0809 H         1 UNK         0.0000 
    132 H132       -5.8910    4.0076    0.0084 H         1 UNK         0.0000 
    133 H133       -6.7106    4.5046   -1.4672 H         1 UNK         0.0000 
    134 H134       -5.9887    7.0047   -2.4651 H         1 UNK         0.0000 
    135 H135       -4.9217    7.9414   -1.4828 H         1 UNK         0.0000 
    136 H136       -7.2062    8.8176   -1.3364 H         1 UNK         0.0000 
    137 H137       -7.8205    7.2584   -0.7834 H         1 UNK         0.0000 
    138 H138       -7.3941    8.8350    0.8895 H         1 UNK         0.0000 
@<TRIPOS>BOND
     1    1   10 nc   
     2    1   12 nc   
     3    1   45 nc   
     4    1   47 nc   
     5    1   66 nc   
     6    1   68 nc   
     7    2   76 1    
     8    2    3 1    
     9    3   78 1    
    10    3    4 1    
    11    3   77 1    
    12    4   79 1    
    13    4    5 1    
    14    4   80 1    
    15    5    7 2    
    16    5    6 1    
    17    6   83 1    
    18    6   81 1    
    19    6   82 1    
    20    7    8 1    
    21    7    9 1    
    22    8   84 1    
    23    8   85 1    
    24    8   86 1    
    25    9   10 2    
    26    9   11 am   BACKBONE|DICT|INTERRES
    27   11   12 1    
    28   11   13 1    
    29   13   14 1    
    30   13   87 1    
    31   13   88 1    
    32   14   90 1    
    33   14   89 1    
    34   14   15 1    
    35   15   16 1    
    36   15   91 1    
    37   15   92 1    
    38   16   17 1    
    39   16   18 1    
    40   16   61 1    
    41   18   20 am   BACKBONE|DICT|INTERRES
    42   18   19 2    
    43   20   93 1    
    44   20   21 1    
    45   21   22 1    
    46   21   25 1    
    47   21   23 1    
    48   23   95 1    
    49   23   24 1    
    50   23   94 1    
    51   24   96 1    
    52   25   27 am   BACKBONE|DICT|INTERRES
    53   25   26 2    
    54   27   97 1    
    55   27   28 1    
    56   28   29 1    
    57   28   30 1    
    58   28   32 1    
    59   30   99 1    
    60   30   31 1    
    61   30   98 1    
    62   31  100 1    
    63   32   34 am   BACKBONE|DICT|INTERRES
    64   32   33 2    
    65   34   35 1    
    66   34  101 1    
    67   35  102 1    
    68   35  103 1    
    69   35   36 1    
    70   36   37 2    
    71   36   38 am   BACKBONE|DICT|INTERRES
    72   38   39 1    
    73   38  104 1    
    74   39   40 1    
    75   39   41 1    
    76   39   54 1    
    77   41  105 1    
    78   41   42 1    
    79   41  106 1    
    80   42   43 1    
    81   42  107 1    
    82   42  108 1    
    83   43  110 1    
    84   43  109 1    
    85   43   44 1    
    86   44   46 am   BACKBONE|DICT|INTERRES
    87   44   45 1    
    88   46   48 1    
    89   46   47 2    
    90   48   49 2    
    91   48  111 1    
    92   49   51 1    
    93   49   50 1    
    94   50  113 1    
    95   50  114 1    
    96   50  112 1    
    97   51  116 1    
    98   51   52 1    
    99   51  115 1    
   100   52   53 1    
   101   52  117 1    
   102   52  118 1    
   103   53  119 1    
   104   54   55 2    
   105   54   56 am   BACKBONE|DICT|INTERRES
   106   56   57 1    
   107   56  120 1    
   108   57   58 1    
   109   57   62 1    
   110   57   59 1    
   111   59   60 2    
   112   59   61 am   BACKBONE|DICT|INTERRES
   113   61  121 1    
   114   62  123 1    
   115   62  122 1    
   116   62   63 1    
   117   63   64 1    
   118   63  124 1    
   119   63  125 1    
   120   64  126 1    
   121   64   65 1    
   122   64  127 1    
   123   65   67 am   BACKBONE|DICT|INTERRES
   124   65   66 1    
   125   67   68 2    
   126   67   69 1    
   127   69   70 1    
   128   69  128 1    
   129   69  129 1    
   130   70   72 1    
   131   70   71 1    
   132   70   73 1    
   133   71  130 1    
   134   72  132 1    
   135   72  131 1    
   136   72  133 1    
   137   73   74 1    
   138   73  134 1    
   139   73  135 1    
   140   74  137 1    
   141   74   75 1    
   142   74  136 1    
   143   75  138 1    
@<TRIPOS>SUBSTRUCTURE
     1 UNK         1 GROUP             0       ****    0 ROOT    
