@<TRIPOS>MOLECULE
009_c3
46   51    1
SMALL
USER_CHARGES


@<TRIPOS>ATOM
      1 Fe1         0.0000    0.0000    0.0000 Fe        1 UNK         0.0000 
      2 O2          3.2558    4.8330   -2.1607 O.3       1 UNK         0.0000 
      3 C3          2.8733    3.9475   -1.2194 C.ar      1 UNK         0.0000 
      4 C4          3.7884    2.9853   -0.6933 C.ar      1 UNK         0.0000 
      5 C5          1.4888    3.7687   -0.9386 C.ar      1 UNK         0.0000 
      6 C6          1.1473    2.7741    0.0086 C.ar      1 UNK         0.0000 
      7 O7          0.0000    2.0800    0.0000 O.co2     1 UNK         0.0000 
      8 C8          2.1048    2.3677    0.8955 C.ar      1 UNK         0.0000 
      9 C9          3.2424    2.0318    0.2001 C.ar      1 UNK         0.0000 
     10 C10         3.2590    0.6163   -0.1793 C.2       1 UNK         0.0000 
     11 O11         2.0794   -0.0487    0.0000 O.co2     1 UNK         0.0000 
     12 O12         4.1478    0.1353   -0.8643 O.co2     1 UNK         0.0000 
     13 H13         4.1788    4.9209   -2.4359 H         1 UNK         0.0000 
     14 O14        -2.2476   -4.8120    3.2122 O.3       1 UNK         0.0000 
     15 C15        -1.2804   -3.9484    2.8447 C.ar      1 UNK         0.0000 
     16 C16        -0.7307   -3.0145    3.7751 C.ar      1 UNK         0.0000 
     17 C17        -0.9904   -3.7585    1.4642 C.ar      1 UNK         0.0000 
     18 C18        -0.0144   -2.7875    1.1387 C.ar      1 UNK         0.0000 
     19 O19         0.0000   -2.0800    0.0000 O.co2     1 UNK         0.0000 
     20 C20         0.8785   -2.4159    2.1056 C.ar      1 UNK         0.0000 
     21 C21         0.1869   -2.0755    3.2454 C.ar      1 UNK         0.0000 
     22 C22        -0.1835   -0.6566    3.2596 C.2       1 UNK         0.0000 
     23 O23         0.0000    0.0073    2.0800 O.co2     1 UNK         0.0000 
     24 O24        -0.8639   -0.1696    4.1486 O.co2     1 UNK         0.0000 
     25 H25        -2.5278   -4.9049    4.1338 H         1 UNK         0.0000 
     26 O26        -4.8125   -2.2639   -3.2046 O.3       1 UNK         0.0000 
     27 C27        -3.9512   -1.2938   -2.8395 C.ar      1 UNK         0.0000 
     28 C28        -3.0209   -0.7422   -3.7730 C.ar      1 UNK         0.0000 
     29 C29        -3.7591   -1.0011   -1.4590 C.ar      1 UNK         0.0000 
     30 C30        -2.7910   -0.0206   -1.1374 C.ar      1 UNK         0.0000 
     31 O31        -2.0800    0.0000    0.0000 O.co2     1 UNK         0.0000 
     32 C32        -2.4283    0.8717   -2.1086 C.ar      1 UNK         0.0000 
     33 C33        -2.0845    0.1797   -3.2468 C.ar      1 UNK         0.0000 
     34 C34        -0.6632   -0.1857   -3.2600 C.2       1 UNK         0.0000 
     35 O35        -0.0000    0.0000   -2.0800 O.co2     1 UNK         0.0000 
     36 O36        -0.1731   -0.8631   -4.1493 O.co2     1 UNK         0.0000 
     37 H37        -4.9062   -2.5445   -4.1259 H         1 UNK         0.0000 
     38 H38        -2.4469    1.9316   -1.9023 H         1 UNK         0.0000 
     39 H39        -4.3404   -1.5197   -0.7110 H         1 UNK         0.0000 
     40 H40        -3.0602   -1.0352   -4.8117 H         1 UNK         0.0000 
     41 H41         1.8895    2.3534    1.9537 H         1 UNK         0.0000 
     42 H42         4.8397    2.9553   -0.9388 H         1 UNK         0.0000 
     43 H43         0.7527    4.3790   -1.4408 H         1 UNK         0.0000 
     44 H44         1.9378   -2.4266    1.8953 H         1 UNK         0.0000 
     45 H45        -0.9765   -2.9953    4.8266 H         1 UNK         0.0000 
     46 H46        -1.5077   -4.3437    0.7183 H         1 UNK         0.0000 
@<TRIPOS>BOND
     1    1    7 nc   
     2    1   11 nc   
     3    1   19 nc   
     4    1   23 nc   
     5    1   31 nc   
     6    1   35 nc   
     7    2    3 1    
     8    2   13 1    
     9    3    5 ar   
    10    3    4 ar   
    11    4    9 ar   
    12    4   42 1    
    13    5    6 ar   
    14    5   43 1    
    15    6    7 1    
    16    6    8 ar   
    17    8    9 ar   
    18    8   41 1    
    19    9   10 1    
    20   10   11 1    
    21   10   12 2    
    22   14   25 1    
    23   14   15 1    
    24   15   16 ar   
    25   15   17 ar   
    26   16   21 ar   
    27   16   45 1    
    28   17   18 ar   
    29   17   46 1    
    30   18   19 1    
    31   18   20 ar   
    32   20   21 ar   
    33   20   44 1    
    34   21   22 1    
    35   22   24 2    
    36   22   23 1    
    37   26   27 1    
    38   26   37 1    
    39   27   29 ar   
    40   27   28 ar   
    41   28   33 ar   
    42   28   40 1    
    43   29   30 ar   
    44   29   39 1    
    45   30   31 1    
    46   30   32 ar   
    47   32   33 ar   
    48   32   38 1    
    49   33   34 1    
    50   34   35 1    
    51   34   36 2    
@<TRIPOS>SUBSTRUCTURE
     1 UNK         1 GROUP             0       ****    0 ROOT    
