@<TRIPOS>MOLECULE
008_c1
46   51    1
SMALL
USER_CHARGES


@<TRIPOS>ATOM
      1 Fe1         0.0000    0.0000    0.0000 Fe        1 UNK         0.0000 
      2 C2          3.0360    4.1408    0.0711 C.ar      1 UNK         0.0000 
      3 C3          1.6951    3.7606    0.0465 C.ar      1 UNK         0.0000 
      4 C4          1.3343    2.4080    0.0219 C.ar      1 UNK         0.0000 
      5 O5          0.0000    2.0800    0.0000 O.co2     1 UNK         0.0000 
      6 C6          2.3674    1.4055    0.0221 C.ar      1 UNK         0.0000 
      7 O7          2.0792    0.0578    0.0000 O.co2     1 UNK         0.0000 
      8 C8          3.7094    1.8130    0.0470 C.ar      1 UNK         0.0000 
      9 C9          4.0549    3.1745    0.0717 C.ar      1 UNK         0.0000 
     10 C10         5.4805    3.5826    0.0982 C.2       1 UNK         0.0000 
     11 O11         6.4571    2.6544    0.0986 O.2       1 UNK         0.0000 
     12 O12         5.7872    4.7647    0.1196 O.3       1 UNK         0.0000 
     13 H13         3.2739    5.1971    0.0904 H         1 UNK         0.0000 
     14 H14         0.9287    4.5260    0.0475 H         1 UNK         0.0000 
     15 H15         4.4852    1.0574    0.0478 H         1 UNK         0.0000 
     16 C16         0.1415   -4.0730    3.0848 C.ar      1 UNK         0.0000 
     17 C17         0.0932   -3.7176    1.7375 C.ar      1 UNK         0.0000 
     18 C18         0.0442   -2.3730    1.3488 C.ar      1 UNK         0.0000 
     19 O19         0.0000   -2.0800    0.0000 O.co2     1 UNK         0.0000 
     20 C20         0.0444   -1.3492    2.3731 C.ar      1 UNK         0.0000 
     21 O21         0.0000    0.0000    2.0800 O.co2     1 UNK         0.0000 
     22 C22         0.0936   -1.7366    3.7197 C.ar      1 UNK         0.0000 
     23 C23         0.1422   -3.0899    4.0873 C.ar      1 UNK         0.0000 
     24 C24         0.1940   -3.4714    5.5198 C.2       1 UNK         0.0000 
     25 O25         0.1945   -2.5246    6.4791 O.3       1 UNK         0.0000 
     26 O26         0.2364   -4.6459    5.8485 O.2       1 UNK         0.0000 
     27 H27         0.1787   -5.1241    3.3416 H         1 UNK         0.0000 
     28 H28         0.0945   -4.4979    0.9865 H         1 UNK         0.0000 
     29 H29         0.0940   -0.9687    4.4835 H         1 UNK         0.0000 
     30 C30        -4.0731    0.1409   -3.0855 C.ar      1 UNK         0.0000 
     31 C31        -3.7175    0.0926   -1.7379 C.ar      1 UNK         0.0000 
     32 C32        -2.3731    0.0438   -1.3490 C.ar      1 UNK         0.0000 
     33 O33        -2.0800    0.0000    0.0000 O.co2     1 UNK         0.0000 
     34 C34        -1.3493    0.0438   -2.3734 C.ar      1 UNK         0.0000 
     35 O35         0.0000    0.0000   -2.0800 O.co2     1 UNK         0.0000 
     36 C36        -1.7367    0.0926   -3.7203 C.ar      1 UNK         0.0000 
     37 C37        -3.0903    0.1414   -4.0877 C.ar      1 UNK         0.0000 
     38 C38        -3.4715    0.1936   -5.5204 C.2       1 UNK         0.0000 
     39 O39        -2.5253    0.1939   -6.4797 O.2       1 UNK         0.0000 
     40 O40        -4.6473    0.2372   -5.8487 O.3       1 UNK         0.0000 
     41 H41        -5.1242    0.1785   -3.3422 H         1 UNK         0.0000 
     42 H42        -4.4981    0.0942   -0.9872 H         1 UNK         0.0000 
     43 H43        -0.9687    0.0931   -4.4839 H         1 UNK         0.0000 
     44 H44         6.7435    4.8474    0.1346 H         1 UNK         0.0000 
     45 H45         0.2311   -2.9431    7.3423 H         1 UNK         0.0000 
     46 H46        -4.7118    0.2666   -6.8061 H         1 UNK         0.0000 
@<TRIPOS>BOND
     1    1    5 nc   
     2    1    7 nc   
     3    1   19 nc   
     4    1   21 nc   
     5    1   33 nc   
     6    1   35 nc   
     7    2    9 ar   
     8    2   13 1    
     9    2    3 ar   
    10    3   14 1    
    11    3    4 ar   
    12    4    6 ar   
    13    4    5 1    
    14    6    8 ar   
    15    6    7 1    
    16    8   15 1    
    17    8    9 ar   
    18    9   10 1    
    19   10   11 2    
    20   10   12 1    
    21   12   44 1    
    22   16   27 1    
    23   16   23 ar   
    24   16   17 ar   
    25   17   18 ar   
    26   17   28 1    
    27   18   20 ar   
    28   18   19 1    
    29   20   22 ar   
    30   20   21 1    
    31   22   23 ar   
    32   22   29 1    
    33   23   24 1    
    34   24   26 2    
    35   24   25 1    
    36   25   45 1    
    37   30   31 ar   
    38   30   37 ar   
    39   30   41 1    
    40   31   32 ar   
    41   31   42 1    
    42   32   33 1    
    43   32   34 ar   
    44   34   35 1    
    45   34   36 ar   
    46   36   37 ar   
    47   36   43 1    
    48   37   38 1    
    49   38   39 2    
    50   38   40 1    
    51   40   46 1    
@<TRIPOS>SUBSTRUCTURE
     1 UNK         1 GROUP             0       ****    0 ROOT    
