@<TRIPOS>MOLECULE
030_c1
53   58    1
SMALL
USER_CHARGES


@<TRIPOS>ATOM
      1 Fe1        -0.3844    0.1385   -0.0554 Fe        1 UNK         0.0000 
      2 O2         -1.4210    0.0002   -1.3985 O.co2     1 UNK         0.0000 
      3 N3         -1.0572    0.1090   -2.6746 N.am      1 UNK         0.0000 
      4 C4         -0.4514   -0.9696   -3.4521 C.3       1 UNK         0.0000 
      5 C5         -0.1545   -2.2440   -2.5676 C.3       1 UNK         0.0000 
      6 C6          1.1740   -2.1804   -1.7484 C.3       1 UNK         0.0000 
      7 H7          1.9672   -2.1010   -2.5300 H         1 UNK         0.0000 
      8 O8          1.2147   -1.0477   -0.9290 O.co2     1 UNK         0.0000 
      9 C9          1.5074   -3.4220   -0.8688 C.3       1 UNK         0.0000 
     10 N10         0.7454   -3.4426    0.3800 N.am      1 UNK         0.0000 
     11 C11         1.3080   -3.1590    1.6065 C.2       1 UNK         0.0000 
     12 O12         2.4994   -2.8912    1.6931 O.2       1 UNK         0.0000 
     13 C13         0.4617   -3.0659    2.8740 C.3       1 UNK         0.0000 
     14 C14         0.2911   -1.5918    3.3654 C.3       1 UNK         0.0000 
     15 C15        -0.5316   -0.8537    2.3385 C.2       1 UNK         0.0000 
     16 O16        -0.3951   -1.1374    1.1675 O.co2     1 UNK         0.0000 
     17 N17        -1.2300    0.2729    2.4065 N.am      1 UNK         0.0000 
     18 O18        -1.8877    0.4843    1.2440 O.co2     1 UNK         0.0000 
     19 C19        -0.9954    1.3462    3.3457 C.3       1 UNK         0.0000 
     20 C20         0.4500    1.9002    3.1626 C.3       1 UNK         0.0000 
     21 C21         0.8996    2.3412    1.7263 C.3       1 UNK         0.0000 
     22 H22         1.9638    2.6645    1.8557 H         1 UNK         0.0000 
     23 O23         0.8687    1.2738    0.7766 O.co2     1 UNK         0.0000 
     24 C24         0.1671    3.5812    1.1633 C.3       1 UNK         0.0000 
     25 N25         0.6382    3.7920   -0.1983 N.am      1 UNK         0.0000 
     26 C26        -0.1902    3.8690   -1.2791 C.2       1 UNK         0.0000 
     27 O27        -1.3976    4.0101   -1.1363 O.2       1 UNK         0.0000 
     28 C28         0.3746    3.6261   -2.6640 C.3       1 UNK         0.0000 
     29 C29        -0.2979    2.4039   -3.3489 C.3       1 UNK         0.0000 
     30 C30        -0.5522    1.2315   -2.4242 C.2       1 UNK         0.0000 
     31 O31        -0.6857    1.2579   -1.1928 O.co2     1 UNK         0.0000 
     32 H32        -1.1808   -1.2404   -4.2435 H         1 UNK         0.0000 
     33 H33         0.4907   -0.6477   -3.9492 H         1 UNK         0.0000 
     34 H34        -0.0298   -3.1069   -3.2577 H         1 UNK         0.0000 
     35 H35        -1.0277   -2.4737   -1.9208 H         1 UNK         0.0000 
     36 H36         2.5908   -3.3404   -0.6347 H         1 UNK         0.0000 
     37 H37         1.3794   -4.3734   -1.4272 H         1 UNK         0.0000 
     38 H38        -0.2718   -3.6054    0.3212 H         1 UNK         0.0000 
     39 H39         0.9235   -3.6940    3.6649 H         1 UNK         0.0000 
     40 H40        -0.5561   -3.4769    2.6829 H         1 UNK         0.0000 
     41 H41        -0.2889   -1.6132    4.3135 H         1 UNK         0.0000 
     42 H42         1.2734   -1.1145    3.5490 H         1 UNK         0.0000 
     43 H43        -1.1648    0.9992    4.3872 H         1 UNK         0.0000 
     44 H44        -1.7090    2.1697    3.1327 H         1 UNK         0.0000 
     45 H45         1.1635    1.1215    3.4934 H         1 UNK         0.0000 
     46 H46         0.5799    2.7594    3.8554 H         1 UNK         0.0000 
     47 H47        -0.9311    3.4214    1.1810 H         1 UNK         0.0000 
     48 H48         0.4100    4.4613    1.7961 H         1 UNK         0.0000 
     49 H49         1.6576    3.7495   -0.3544 H         1 UNK         0.0000 
     50 H50         1.4609    3.4131   -2.5761 H         1 UNK         0.0000 
     51 H51         0.2517    4.5226   -3.3085 H         1 UNK         0.0000 
     52 H52        -1.3135    2.7226   -3.6732 H         1 UNK         0.0000 
     53 H53         0.2609    2.1061   -4.2598 H         1 UNK         0.0000 
@<TRIPOS>BOND
     1    1    2 nc   
     2    1    8 nc   
     3    1   16 nc   
     4    1   18 nc   
     5    1   23 nc   
     6    1   31 nc   
     7    2    3 1    
     8    3   30 am   BACKBONE|DICT|INTERRES
     9    3    4 1    
    10    4    5 1    
    11    4   32 1    
    12    4   33 1    
    13    5   35 1    
    14    5    6 1    
    15    5   34 1    
    16    6    7 1    
    17    6    8 1    
    18    6    9 1    
    19    9   36 1    
    20    9   10 1    
    21    9   37 1    
    22   10   11 am   BACKBONE|DICT|INTERRES
    23   10   38 1    
    24   11   12 2    
    25   11   13 1    
    26   13   14 1    
    27   13   39 1    
    28   13   40 1    
    29   14   42 1    
    30   14   41 1    
    31   14   15 1    
    32   15   16 2    
    33   15   17 am   BACKBONE|DICT|INTERRES
    34   17   19 1    
    35   17   18 1    
    36   19   43 1    
    37   19   20 1    
    38   19   44 1    
    39   20   45 1    
    40   20   46 1    
    41   20   21 1    
    42   21   22 1    
    43   21   23 1    
    44   21   24 1    
    45   24   47 1    
    46   24   48 1    
    47   24   25 1    
    48   25   26 am   BACKBONE|DICT|INTERRES
    49   25   49 1    
    50   26   27 2    
    51   26   28 1    
    52   28   50 1    
    53   28   29 1    
    54   28   51 1    
    55   29   30 1    
    56   29   52 1    
    57   29   53 1    
    58   30   31 2    
@<TRIPOS>SUBSTRUCTURE
     1 UNK         1 GROUP             0       ****    0 ROOT    
