@<TRIPOS>MOLECULE
263_D1_c1
145   150    1
SMALL
USER_CHARGES


@<TRIPOS>ATOM
      1 C1         19.5669   14.3593   15.2843 C.3       1 UNK         0.0000 
      2 C2         19.7164   12.8676   15.0973 C.2       1 UNK         0.0000 
      3 O3         20.0289   12.4174   13.9789 O.co2     1 UNK         0.0000 
      4 N4         19.4528   11.9865   16.1043 N.am      1 UNK         0.0000 
      5 O5         19.2112   10.7189   15.8634 O.co2     1 UNK         0.0000 
      6 C6         19.5442   12.2515   17.5542 C.3       1 UNK         0.0000 
      7 C7         20.0158   11.0289   18.4373 C.3       1 UNK         0.0000 
      8 C8         21.4155   10.4538   18.1112 C.3       1 UNK         0.0000 
      9 C9         21.6469    8.9105   17.9276 C.3       1 UNK         0.0000 
     10 H10        21.3277    8.3665   18.8413 H         1 UNK         0.0000 
     11 C11        20.8924    8.1938   16.7213 C.2       1 UNK         0.0000 
     12 O12        21.1367    8.6167   15.5513 O.co2     1 UNK         0.0000 
     13 O13        20.2421    7.1861   17.0505 O.co2     1 UNK         0.0000 
     14 N14        23.1015    8.7465   17.7209 N.am      1 UNK         0.0000 
     15 C15        23.9030    7.8532   18.3088 C.2       1 UNK         0.0000 
     16 O16        23.5309    7.0450   19.1550 O.2       1 UNK         0.0000 
     17 C17        25.3973    7.8668   17.8886 C.3       1 UNK         0.0000 
     18 H18        25.8269    6.9911   18.3802 H         1 UNK         0.0000 
     19 C19        26.1137    9.1377   18.4171 C.3       1 UNK         0.0000 
     20 O20        26.1139    9.2747   19.8270 O.3       1 UNK         0.0000 
     21 N21        25.7519    7.7350   16.4542 N.am      1 UNK         0.0000 
     22 C22        24.9681    7.3717   15.4211 C.2       1 UNK         0.0000 
     23 O23        23.7855    7.1155   15.5383 O.2       1 UNK         0.0000 
     24 C24        25.6131    7.2078   14.0231 C.3       1 UNK         0.0000 
     25 H25        26.6867    7.0761   14.1777 H         1 UNK         0.0000 
     26 C26        25.4320    8.4137   13.0558 C.3       1 UNK         0.0000 
     27 C27        25.7958    9.8650   13.4482 C.3       1 UNK         0.0000 
     28 C28        24.7398   10.6801   14.2502 C.3       1 UNK         0.0000 
     29 N29        23.3031   10.7856   13.8303 N.am      1 UNK         0.0000 
     30 O30        22.5223   11.1290   14.8780 O.co2     1 UNK         0.0000 
     31 C31        22.7723   10.5306   12.6016 C.2       1 UNK         0.0000 
     32 O32        21.5381   10.3665   12.5285 O.co2     1 UNK         0.0000 
     33 C33        23.5758   10.5506   11.2881 C.3       1 UNK         0.0000 
     34 N34        25.1013    5.9749   13.3846 N.am      1 UNK         0.0000 
     35 C35        23.8513    5.7442   12.9208 C.2       1 UNK         0.0000 
     36 O36        22.9435    6.5776   12.8864 O.2       1 UNK         0.0000 
     37 C37        23.5666    4.3341   12.3760 C.3       1 UNK         0.0000 
     38 H38        23.9583    3.6076   13.0891 H         1 UNK         0.0000 
     39 C39        24.2645    4.1162   11.0051 C.3       1 UNK         0.0000 
     40 O40        25.6858    4.1281   11.1016 O.3       1 UNK         0.0000 
     41 N41        22.1007    4.1651   12.3688 N.am      1 UNK         0.0000 
     42 C42        21.2448    4.0822   11.3410 C.2       1 UNK         0.0000 
     43 O43        21.5931    3.8041   10.1920 O.2       1 UNK         0.0000 
     44 C44        19.7370    4.3394   11.6177 C.3       1 UNK         0.0000 
     45 H45        19.2907    3.4884   11.1048 H         1 UNK         0.0000 
     46 C46        19.1247    5.5521   10.8360 C.3       1 UNK         0.0000 
     47 C47        19.9110    6.8833   10.8310 C.2       1 UNK         0.0000 
     48 O48        21.0519    6.9278   10.3603 O.2       1 UNK         0.0000 
     49 C49        19.2123    8.1650   11.2955 C.3       1 UNK         0.0000 
     50 H50        19.9641    8.9406   11.1178 H         1 UNK         0.0000 
     51 C51        18.9508    8.2727   12.8230 C.3       1 UNK         0.0000 
     52 H52        19.8346    7.9012   13.3292 H         1 UNK         0.0000 
     53 O53        18.7887    9.6324   13.1573 O.co2     1 UNK         0.0000 
     54 C54        17.7807    7.3436   13.3499 C.2       1 UNK         0.0000 
     55 O55        16.5917    7.6559   13.2466 O.2       1 UNK         0.0000 
     56 N56        18.0215    6.1394   13.9100 N.am      1 UNK         0.0000 
     57 C57        19.2273    5.3151   14.0826 C.3       1 UNK         0.0000 
     58 C58        19.2386    4.1246   13.0962 C.3       1 UNK         0.0000 
     59 N59        18.0029    8.4958   10.4916 N.3       1 UNK         0.0000 
     60 C60        18.1746    9.2599    9.2611 C.3       1 UNK         0.0000 
     61 C61        18.6291    8.3360    8.1378 C.2       1 UNK         0.0000 
     62 O62        17.9165    7.4044    7.7547 O.2       1 UNK         0.0000 
     63 C63        20.0481    8.5488    7.6036 C.3       1 UNK         0.0000 
     64 C64        20.1117    8.7303    6.0733 C.3       1 UNK         0.0000 
     65 C65        19.5828    7.5274    5.2579 C.3       1 UNK         0.0000 
     66 C66        20.2356    6.1760    5.6313 C.3       1 UNK         0.0000 
     67 C67        21.7676    6.1335    5.4421 C.3       1 UNK         0.0000 
     68 C68        22.2521    6.5201    4.0277 C.3       1 UNK         0.0000 
     69 C69        21.7081    5.6015    2.9186 C.3       1 UNK         0.0000 
     70 C70        22.2516    5.9573    1.5448 C.2       1 UNK         0.0000 
     71 C71        21.5643    6.3645    0.4607 C.2       1 UNK         0.0000 
     72 C72        20.0615    6.5795    0.3224 C.3       1 UNK         0.0000 
     73 C73        19.6513    8.0445    0.0571 C.3       1 UNK         0.0000 
     74 C74        20.2685    8.6915   -1.2043 C.3       1 UNK         0.0000 
     75 C75        19.9101    7.9705   -2.5193 C.3       1 UNK         0.0000 
     76 C76        20.5078    8.6567   -3.7602 C.3       1 UNK         0.0000 
     77 C77        20.1412    7.9318   -5.0648 C.3       1 UNK         0.0000 
     78 H78        19.6730   14.8366   14.3127 H         1 UNK         0.0000 
     79 H79        20.2952   14.7819   15.9672 H         1 UNK         0.0000 
     80 H80        18.5568   14.5528   15.6306 H         1 UNK         0.0000 
     81 H81        18.5432   12.5500   17.8756 H         1 UNK         0.0000 
     82 H82        20.1902   13.1220   17.7333 H         1 UNK         0.0000 
     83 H83        20.0129   11.3308   19.4740 H         1 UNK         0.0000 
     84 H84        19.2621   10.2419   18.3970 H         1 UNK         0.0000 
     85 H85        22.0460   10.7267   18.9434 H         1 UNK         0.0000 
     86 H86        21.8550   10.9980   17.2854 H         1 UNK         0.0000 
     87 H87        23.4475    9.2070   16.8950 H         1 UNK         0.0000 
     88 H88        25.6765   10.0267   17.9567 H         1 UNK         0.0000 
     89 H89        27.1598    9.1161   18.1128 H         1 UNK         0.0000 
     90 H90        25.9799   10.1972   20.0629 H         1 UNK         0.0000 
     91 H91        26.7430    7.7920   16.2827 H         1 UNK         0.0000 
     92 H92        24.3897    8.4129   12.7723 H         1 UNK         0.0000 
     93 H93        25.9664    8.1670   12.1348 H         1 UNK         0.0000 
     94 H94        25.9857   10.4278   12.5387 H         1 UNK         0.0000 
     95 H95        26.7474    9.8763   13.9766 H         1 UNK         0.0000 
     96 H96        25.1297   11.6887   14.3785 H         1 UNK         0.0000 
     97 H97        24.7430   10.2409   15.2489 H         1 UNK         0.0000 
     98 H98        24.1824   11.4550   11.2240 H         1 UNK         0.0000 
     99 H99        22.8668   10.5793   10.4661 H         1 UNK         0.0000 
    100 H100       24.2046    9.6812   11.0927 H         1 UNK         0.0000 
    101 H101       25.7580    5.2187   13.2658 H         1 UNK         0.0000 
    102 H102       23.9576    4.8985   10.3066 H         1 UNK         0.0000 
    103 H103       23.9714    3.1594   10.5735 H         1 UNK         0.0000 
    104 H104       26.0415    3.9956   10.2163 H         1 UNK         0.0000 
    105 H105       21.6955    4.5259   13.2220 H         1 UNK         0.0000 
    106 H106       18.1154    5.7596   11.1848 H         1 UNK         0.0000 
    107 H107       18.9907    5.2883    9.7877 H         1 UNK         0.0000 
    108 H108       17.1652    5.7732   14.2841 H         1 UNK         0.0000 
    109 H109       19.2297    4.9459   15.1104 H         1 UNK         0.0000 
    110 H110       20.1659    5.8650   14.0155 H         1 UNK         0.0000 
    111 H111       18.2223    3.7254   13.0465 H         1 UNK         0.0000 
    112 H112       19.7959    3.3055   13.5571 H         1 UNK         0.0000 
    113 H113       17.0884    8.3263   10.9070 H         1 UNK         0.0000 
    114 H114       18.8898   10.0764    9.3971 H         1 UNK         0.0000 
    115 H115       17.2276    9.7214    8.9872 H         1 UNK         0.0000 
    116 H116       20.6492    7.6966    7.9242 H         1 UNK         0.0000 
    117 H117       20.4949    9.4062    8.1061 H         1 UNK         0.0000 
    118 H118       21.1454    8.9344    5.7923 H         1 UNK         0.0000 
    119 H119       19.5530    9.6259    5.7975 H         1 UNK         0.0000 
    120 H120       19.7154    7.7303    4.1969 H         1 UNK         0.0000 
    121 H121       18.5014    7.4412    5.3734 H         1 UNK         0.0000 
    122 H122       19.7660    5.3830    5.0495 H         1 UNK         0.0000 
    123 H123       20.0000    5.9224    6.6671 H         1 UNK         0.0000 
    124 H124       22.1245    5.1323    5.6878 H         1 UNK         0.0000 
    125 H125       22.2400    6.7895    6.1749 H         1 UNK         0.0000 
    126 H126       23.3427    6.5045    4.0128 H         1 UNK         0.0000 
    127 H127       21.9803    7.5545    3.8094 H         1 UNK         0.0000 
    128 H128       20.6208    5.6283    2.9132 H         1 UNK         0.0000 
    129 H129       21.9958    4.5695    3.1228 H         1 UNK         0.0000 
    130 H130       23.3258    5.8615    1.4588 H         1 UNK         0.0000 
    131 H131       22.1270    6.5699   -0.4399 H         1 UNK         0.0000 
    132 H132       19.6849    5.9321   -0.4699 H         1 UNK         0.0000 
    133 H133       19.5417    6.2380    1.2151 H         1 UNK         0.0000 
    134 H134       18.5634    8.1019   -0.0106 H         1 UNK         0.0000 
    135 H135       19.9189    8.6455    0.9281 H         1 UNK         0.0000 
    136 H136       19.9335    9.7287   -1.2632 H         1 UNK         0.0000 
    137 H137       21.3533    8.7452   -1.0964 H         1 UNK         0.0000 
    138 H138       18.8241    7.9150   -2.6179 H         1 UNK         0.0000 
    139 H139       20.2632    6.9387   -2.4832 H         1 UNK         0.0000 
    140 H140       20.1655    9.6921   -3.8103 H         1 UNK         0.0000 
    141 H141       21.5945    8.7047   -3.6657 H         1 UNK         0.0000 
    142 H142       19.0606    7.8991   -5.2111 H         1 UNK         0.0000 
    143 H143       20.5056    6.9034   -5.0643 H         1 UNK         0.0000 
    144 H144       20.5750    8.4333   -5.9303 H         1 UNK         0.0000 
    145 Fe145      20.5097   10.3828   14.3429 Fe        1 UNK         0.0000 
@<TRIPOS>BOND
     1    1    2 1    
     2    1   78 1    
     3    1   79 1    
     4    1   80 1    
     5    2    3 2    
     6    2    4 am   BACKBONE|DICT|INTERRES
     7    3  145 nc   
     8    4    5 1    
     9    4    6 1    
    10    5  145 nc   
    11    6    7 1    
    12    6   81 1    
    13    6   82 1    
    14    7    8 1    
    15    7   83 1    
    16    7   84 1    
    17    8    9 1    
    18    8   85 1    
    19    8   86 1    
    20    9   10 1    
    21    9   11 1    
    22    9   14 1    
    23   11   12 1    
    24   11   13 2    
    25   12  145 nc   
    26   14   15 am   BACKBONE|DICT|INTERRES
    27   14   87 1    
    28   15   16 2    
    29   15   17 1    
    30   17   19 1    
    31   17   21 1    
    32   17   18 1    
    33   19   20 1    
    34   19   88 1    
    35   19   89 1    
    36   20   90 1    
    37   21   22 am   BACKBONE|DICT|INTERRES
    38   21   91 1    
    39   22   23 2    
    40   22   24 1    
    41   24   26 1    
    42   24   34 1    
    43   24   25 1    
    44   26   27 1    
    45   26   92 1    
    46   26   93 1    
    47   27   28 1    
    48   27   94 1    
    49   27   95 1    
    50   28   29 1    
    51   28   96 1    
    52   28   97 1    
    53   29   30 1    
    54   29   31 am   BACKBONE|DICT|INTERRES
    55   30  145 nc   
    56   31   32 2    
    57   31   33 1    
    58   32  145 nc   
    59   33   98 1    
    60   33   99 1    
    61   33  100 1    
    62   34   35 am   BACKBONE|DICT|INTERRES
    63   34  101 1    
    64   35   36 2    
    65   35   37 1    
    66   37   39 1    
    67   37   41 1    
    68   37   38 1    
    69   39   40 1    
    70   39  102 1    
    71   39  103 1    
    72   40  104 1    
    73   41   42 am   BACKBONE|DICT|INTERRES
    74   41  105 1    
    75   42   43 2    
    76   42   44 1    
    77   44   46 1    
    78   44   58 1    
    79   44   45 1    
    80   46   47 1    
    81   46  106 1    
    82   46  107 1    
    83   47   48 2    
    84   47   49 1    
    85   49   51 1    
    86   49   59 1    
    87   49   50 1    
    88   51   54 1    
    89   51   53 1    
    90   51   52 1    
    91   53  145 nc   
    92   54   55 2    
    93   54   56 am   BACKBONE|DICT|INTERRES
    94   56   57 1    
    95   56  108 1    
    96   57   58 1    
    97   57  109 1    
    98   57  110 1    
    99   58  111 1    
   100   58  112 1    
   101   59   60 1    
   102   59  113 1    
   103   60   61 1    
   104   60  114 1    
   105   60  115 1    
   106   61   62 2    
   107   61   63 1    
   108   63   64 1    
   109   63  116 1    
   110   63  117 1    
   111   64   65 1    
   112   64  118 1    
   113   64  119 1    
   114   65   66 1    
   115   65  120 1    
   116   65  121 1    
   117   66   67 1    
   118   66  122 1    
   119   66  123 1    
   120   67   68 1    
   121   67  124 1    
   122   67  125 1    
   123   68   69 1    
   124   68  126 1    
   125   68  127 1    
   126   69   70 1    
   127   69  128 1    
   128   69  129 1    
   129   70   71 2    
   130   70  130 1    
   131   71   72 1    
   132   71  131 1    
   133   72   73 1    
   134   72  132 1    
   135   72  133 1    
   136   73   74 1    
   137   73  134 1    
   138   73  135 1    
   139   74   75 1    
   140   74  136 1    
   141   74  137 1    
   142   75   76 1    
   143   75  138 1    
   144   75  139 1    
   145   76   77 1    
   146   76  140 1    
   147   76  141 1    
   148   77  142 1    
   149   77  143 1    
   150   77  144 1    
@<TRIPOS>SUBSTRUCTURE
     1 UNK         1 GROUP             0       ****    0 ROOT    
