@<TRIPOS>MOLECULE
054_C_c1
150   154    1
SMALL
USER_CHARGES


@<TRIPOS>ATOM
      1 Fe1         0.3956    1.4881    2.9394 Fe        1 UNK         0.0000 
      2 O2         -0.5151    2.3993    4.6400 O.co2     1 UNK         0.0000 
      3 C3          0.4740    2.6504    5.3487 C.2       1 UNK         0.0000 
      4 C4          0.5511    3.9651    6.1383 C.3       1 UNK         0.0000 
      5 N5          1.4800    1.7538    5.3608 N.am      1 UNK         0.0000 
      6 O6          1.3299    0.5553    4.8060 O.co2     1 UNK         0.0000 
      7 C7          2.7909    1.9532    6.0489 C.3       1 UNK         0.0000 
      8 C8          3.9342    0.9438    5.7269 C.3       1 UNK         0.0000 
      9 C9          5.1932    1.1414    6.5957 C.3       1 UNK         0.0000 
     10 C10         6.2777    0.0434    6.4263 C.3       1 UNK         0.0000 
     11 H11         5.7455   -0.9002    6.5154 H         1 UNK         0.0000 
     12 C12         7.2875    0.0653    7.5979 C.2       1 UNK         0.0000 
     13 O13         7.7844    1.0474    8.0967 O.2       1 UNK         0.0000 
     14 O14         7.4886   -1.1752    8.0890 O.3       1 UNK         0.0000 
     15 N15         6.9592   -0.0116    5.1244 N.am      1 UNK         0.0000 
     16 C16         7.6776    0.9813    4.5718 C.2       1 UNK         0.0000 
     17 O17         7.6944    2.1335    4.9968 O.2       1 UNK         0.0000 
     18 C18         8.4561    0.6582    3.2836 C.3       1 UNK         0.0000 
     19 H19         9.0924    1.5256    3.1058 H         1 UNK         0.0000 
     20 C20         9.3895   -0.5833    3.3330 C.3       1 UNK         0.0000 
     21 O21        10.3165   -0.5764    4.4101 O.3       1 UNK         0.0000 
     22 N22         7.5001    0.5362    2.1834 N.am      1 UNK         0.0000 
     23 C23         7.6979    1.0213    0.9481 C.2       1 UNK         0.0000 
     24 O24         8.7438    1.5503    0.5808 O.2       1 UNK         0.0000 
     25 C25         6.5194    0.8841   -0.0354 C.3       1 UNK         0.0000 
     26 H26         5.8623    0.1073    0.3642 H         1 UNK         0.0000 
     27 C27         5.6686    2.1790   -0.1351 C.3       1 UNK         0.0000 
     28 C28         4.7618    2.4252    1.0790 C.3       1 UNK         0.0000 
     29 C29         3.6108    3.4183    0.7756 C.3       1 UNK         0.0000 
     30 N30         2.3147    3.1560    1.4472 N.am      1 UNK         0.0000 
     31 O31         2.1001    1.9205    1.8900 O.co2     1 UNK         0.0000 
     32 C32         1.2977    4.0342    1.5627 C.2       1 UNK         0.0000 
     33 O33         0.3149    3.5416    2.1365 O.co2     1 UNK         0.0000 
     34 C34         1.3362    5.4845    1.0649 C.3       1 UNK         0.0000 
     35 N35         6.9481    0.3116   -1.3191 N.am      1 UNK         0.0000 
     36 C36         6.9333    0.8431   -2.5529 C.2       1 UNK         0.0000 
     37 O37         6.7237    2.0236   -2.8283 O.2       1 UNK         0.0000 
     38 C38         7.0473   -0.1676   -3.7056 C.3       1 UNK         0.0000 
     39 H39         7.5294   -1.0707   -3.3342 H         1 UNK         0.0000 
     40 C40         7.8931    0.3577   -4.8749 C.3       1 UNK         0.0000 
     41 C41         8.0128   -0.6387   -6.0439 C.3       1 UNK         0.0000 
     42 C42         8.9885   -0.1399   -7.1071 C.2       1 UNK         0.0000 
     43 O43        10.1706    0.0400   -6.8440 O.2       1 UNK         0.0000 
     44 N44         8.5160    0.0882   -8.3266 N.am      1 UNK         0.0000 
     45 N45         5.7029   -0.4860   -4.1865 N.am      1 UNK         0.0000 
     46 C46         4.9048   -1.3830   -3.5874 C.2       1 UNK         0.0000 
     47 O47         5.2497   -2.0207   -2.5906 O.2       1 UNK         0.0000 
     48 C48         3.4875   -1.5854   -4.1598 C.3       1 UNK         0.0000 
     49 H49         3.2190   -2.6069   -3.8854 H         1 UNK         0.0000 
     50 C50         3.3298   -1.4785   -5.7046 C.3       1 UNK         0.0000 
     51 O51         4.1875   -2.3175   -6.4649 O.3       1 UNK         0.0000 
     52 N52         2.5688   -0.6218   -3.5513 N.am      1 UNK         0.0000 
     53 C53         1.3993   -0.9603   -2.9871 C.2       1 UNK         0.0000 
     54 O54         1.0768   -2.1232   -2.7566 O.2       1 UNK         0.0000 
     55 C55         0.3570    0.1483   -2.7293 C.3       1 UNK         0.0000 
     56 H56        -0.3396   -0.0069   -3.5556 H         1 UNK         0.0000 
     57 C57         0.8169    1.6205   -2.8571 C.3       1 UNK         0.0000 
     58 O58         1.7835    1.9465   -1.8775 O.3       1 UNK         0.0000 
     59 N59        -0.3494   -0.0545   -1.4583 N.am      1 UNK         0.0000 
     60 C60        -1.6869    0.0410   -1.3406 C.2       1 UNK         0.0000 
     61 O61        -2.3899    0.2813   -2.3260 O.2       1 UNK         0.0000 
     62 C62        -2.4106   -0.1197    0.0321 C.3       1 UNK         0.0000 
     63 H63        -2.6532   -1.1861    0.1095 H         1 UNK         0.0000 
     64 C64        -1.5648    0.2377    1.2472 C.2       1 UNK         0.0000 
     65 O65        -1.2101    1.3547    1.7363 O.co2     1 UNK         0.0000 
     66 C66        -0.7352   -0.7952    1.9538 C.2       1 UNK         0.0000 
     67 O67         0.0935   -0.1341    2.6500 O.co2     1 UNK         0.0000 
     68 O68        -0.8749   -2.0047    1.6999 O.co2     1 UNK         0.0000 
     69 N69        -3.6474    0.6907    0.0567 N.am      1 UNK         0.0000 
     70 C70        -4.8474    0.2481    0.4671 C.2       1 UNK         0.0000 
     71 O71        -4.9824   -0.7914    1.1019 O.2       1 UNK         0.0000 
     72 C72        -6.0683    1.1258    0.1445 C.3       1 UNK         0.0000 
     73 C73        -7.1237    0.4998   -0.8097 C.3       1 UNK         0.0000 
     74 C74        -7.8723   -0.7269   -0.2465 C.3       1 UNK         0.0000 
     75 C75        -9.1225   -1.1014   -1.0665 C.3       1 UNK         0.0000 
     76 C76        -9.8862   -2.2959   -0.4713 C.3       1 UNK         0.0000 
     77 C77       -11.1960   -2.5928   -1.1751 C.2       1 UNK         0.0000 
     78 C78       -12.0303   -3.5855   -0.8192 C.2       1 UNK         0.0000 
     79 C79       -13.3568   -3.8880   -1.4931 C.3       1 UNK         0.0000 
     80 C80       -14.5532   -3.7433   -0.5363 C.3       1 UNK         0.0000 
     81 C81       -15.9063   -4.0075   -1.2185 C.3       1 UNK         0.0000 
     82 C82       -17.0882   -3.9062   -0.2407 C.3       1 UNK         0.0000 
     83 C83       -18.4445   -4.1667   -0.9175 C.3       1 UNK         0.0000 
     84 C84       -19.6219   -4.0914    0.0670 C.3       1 UNK         0.0000 
     85 H85         0.5123    4.8168    5.4642 H         1 UNK         0.0000 
     86 H86        -0.2994    4.0257    6.8131 H         1 UNK         0.0000 
     87 H87         1.4472    4.0549    6.7510 H         1 UNK         0.0000 
     88 H88         2.5980    1.9108    7.1221 H         1 UNK         0.0000 
     89 H89         3.1822    2.9595    5.8777 H         1 UNK         0.0000 
     90 H90         3.5675   -0.0720    5.8890 H         1 UNK         0.0000 
     91 H91         4.2052    1.0095    4.6730 H         1 UNK         0.0000 
     92 H92         4.8847    1.1461    7.6432 H         1 UNK         0.0000 
     93 H93         5.6200    2.1255    6.4211 H         1 UNK         0.0000 
     94 H94         7.0272   -0.9400    4.7434 H         1 UNK         0.0000 
     95 H95         8.7952   -1.4925    3.4030 H         1 UNK         0.0000 
     96 H96         9.9511   -0.6574    2.4010 H         1 UNK         0.0000 
     97 H97        10.9656   -1.2682    4.2786 H         1 UNK         0.0000 
     98 H98         6.6073    0.1413    2.4306 H         1 UNK         0.0000 
     99 H99         6.3026    3.0505   -0.3101 H         1 UNK         0.0000 
    100 H100        5.0153    2.0857   -1.0054 H         1 UNK         0.0000 
    101 H101        4.3731    1.4515    1.3689 H         1 UNK         0.0000 
    102 H102        5.3267    2.7753    1.9396 H         1 UNK         0.0000 
    103 H103        3.3854    3.4001   -0.2891 H         1 UNK         0.0000 
    104 H104        3.9811    4.4276    0.9506 H         1 UNK         0.0000 
    105 H105        1.2699    6.1655    1.9081 H         1 UNK         0.0000 
    106 H106        0.4858    5.6716    0.4198 H         1 UNK         0.0000 
    107 H107        2.2365    5.7295    0.5053 H         1 UNK         0.0000 
    108 H108        7.1553   -0.6718   -1.2513 H         1 UNK         0.0000 
    109 H109        7.4910    1.2971   -5.2455 H         1 UNK         0.0000 
    110 H110        8.8880    0.6029   -4.5047 H         1 UNK         0.0000 
    111 H111        7.0391   -0.8418   -6.4920 H         1 UNK         0.0000 
    112 H112        8.3818   -1.5954   -5.6769 H         1 UNK         0.0000 
    113 H113        9.1669    0.4303   -9.0155 H         1 UNK         0.0000 
    114 H114        7.5505   -0.0654   -8.5679 H         1 UNK         0.0000 
    115 H115        5.3877    0.0410   -4.9850 H         1 UNK         0.0000 
    116 H116        2.2978   -1.7052   -5.9808 H         1 UNK         0.0000 
    117 H117        3.5065   -0.4515   -6.0222 H         1 UNK         0.0000 
    118 H118        3.7360   -2.5947   -7.2680 H         1 UNK         0.0000 
    119 H119        2.8696    0.3406   -3.5503 H         1 UNK         0.0000 
    120 H120       -0.0372    2.2924   -2.7619 H         1 UNK         0.0000 
    121 H121        1.2353    1.8001   -3.8509 H         1 UNK         0.0000 
    122 H122        2.0555    2.8626   -1.9733 H         1 UNK         0.0000 
    123 H123        0.2627   -0.3315   -0.7055 H         1 UNK         0.0000 
    124 H124       -3.6310    1.4977   -0.5461 H         1 UNK         0.0000 
    125 H125       -5.7172    2.0672   -0.2844 H         1 UNK         0.0000 
    126 H126       -6.5377    1.4001    1.0906 H         1 UNK         0.0000 
    127 H127       -7.8611    1.2695   -1.0429 H         1 UNK         0.0000 
    128 H128       -6.6675    0.2469   -1.7662 H         1 UNK         0.0000 
    129 H129       -7.1955   -1.5830   -0.2008 H         1 UNK         0.0000 
    130 H130       -8.1717   -0.5287    0.7857 H         1 UNK         0.0000 
    131 H131       -8.8342   -1.3204   -2.0962 H         1 UNK         0.0000 
    132 H132       -9.7875   -0.2380   -1.1165 H         1 UNK         0.0000 
    133 H133       -9.2699   -3.1945   -0.5132 H         1 UNK         0.0000 
    134 H134      -10.1176   -2.1051    0.5765 H         1 UNK         0.0000 
    135 H135      -11.4582   -1.9512   -2.0062 H         1 UNK         0.0000 
    136 H136      -11.7663   -4.2311    0.0089 H         1 UNK         0.0000 
    137 H137      -13.4803   -3.2238   -2.3503 H         1 UNK         0.0000 
    138 H138      -13.3000   -4.9084   -1.8752 H         1 UNK         0.0000 
    139 H139      -14.5481   -2.7392   -0.1083 H         1 UNK         0.0000 
    140 H140      -14.4260   -4.4264    0.3052 H         1 UNK         0.0000 
    141 H141      -15.8960   -4.9983   -1.6753 H         1 UNK         0.0000 
    142 H142      -16.0456   -3.2977   -2.0356 H         1 UNK         0.0000 
    143 H143      -16.9474   -4.6185    0.5740 H         1 UNK         0.0000 
    144 H144      -17.0974   -2.9174    0.2210 H         1 UNK         0.0000 
    145 H145      -18.4378   -5.1493   -1.3930 H         1 UNK         0.0000 
    146 H146      -18.6013   -3.4442   -1.7208 H         1 UNK         0.0000 
    147 H147      -20.5700   -4.2778   -0.4401 H         1 UNK         0.0000 
    148 H148      -19.6864   -3.1077    0.5351 H         1 UNK         0.0000 
    149 H149      -19.5227   -4.8325    0.8620 H         1 UNK         0.0000 
    150 H150        8.0607   -0.9386    8.8180 H         1 UNK         0.0000 
@<TRIPOS>BOND
     1    1    2 nc   
     2    1    6 nc   
     3    1   31 nc   
     4    1   33 nc   
     5    1   65 nc   
     6    1   67 nc   
     7    2    3 2    
     8    3    4 1    
     9    3    5 am   BACKBONE|DICT|INTERRES
    10    4   87 1    
    11    4   86 1    
    12    4   85 1    
    13    5    7 1    
    14    5    6 1    
    15    7   88 1    
    16    7    8 1    
    17    7   89 1    
    18    8   90 1    
    19    8    9 1    
    20    8   91 1    
    21    9   92 1    
    22    9   10 1    
    23    9   93 1    
    24   10   11 1    
    25   10   12 1    
    26   10   15 1    
    27   12   13 2    
    28   12   14 1    
    29   14  150 1    
    30   15   16 am   BACKBONE|DICT|INTERRES
    31   15   94 1    
    32   16   17 2    
    33   16   18 1    
    34   18   19 1    
    35   18   20 1    
    36   18   22 1    
    37   20   95 1    
    38   20   21 1    
    39   20   96 1    
    40   21   97 1    
    41   22   98 1    
    42   22   23 am   BACKBONE|DICT|INTERRES
    43   23   24 2    
    44   23   25 1    
    45   25   26 1    
    46   25   27 1    
    47   25   35 1    
    48   27   28 1    
    49   27   99 1    
    50   27  100 1    
    51   28  102 1    
    52   28   29 1    
    53   28  101 1    
    54   29  104 1    
    55   29   30 1    
    56   29  103 1    
    57   30   32 am   BACKBONE|DICT|INTERRES
    58   30   31 1    
    59   32   33 2    
    60   32   34 1    
    61   34  105 1    
    62   34  106 1    
    63   34  107 1    
    64   35  108 1    
    65   35   36 am   BACKBONE|DICT|INTERRES
    66   36   37 2    
    67   36   38 1    
    68   38   39 1    
    69   38   40 1    
    70   38   45 1    
    71   40  110 1    
    72   40   41 1    
    73   40  109 1    
    74   41  112 1    
    75   41   42 1    
    76   41  111 1    
    77   42   43 2    
    78   42   44 am   BACKBONE|DICT|INTERRES
    79   44  113 1    
    80   44  114 1    
    81   45   46 am   BACKBONE|DICT|INTERRES
    82   45  115 1    
    83   46   47 2    
    84   46   48 1    
    85   48   49 1    
    86   48   52 1    
    87   48   50 1    
    88   50   51 1    
    89   50  116 1    
    90   50  117 1    
    91   51  118 1    
    92   52   53 am   BACKBONE|DICT|INTERRES
    93   52  119 1    
    94   53   54 2    
    95   53   55 1    
    96   55   56 1    
    97   55   59 1    
    98   55   57 1    
    99   57  120 1    
   100   57   58 1    
   101   57  121 1    
   102   58  122 1    
   103   59   60 am   BACKBONE|DICT|INTERRES
   104   59  123 1    
   105   60   62 1    
   106   60   61 2    
   107   62   63 1    
   108   62   64 1    
   109   62   69 1    
   110   64   66 1    
   111   64   65 2    
   112   66   67 1    
   113   66   68 2    
   114   69   70 am   BACKBONE|DICT|INTERRES
   115   69  124 1    
   116   70   71 2    
   117   70   72 1    
   118   72  126 1    
   119   72   73 1    
   120   72  125 1    
   121   73   74 1    
   122   73  127 1    
   123   73  128 1    
   124   74  129 1    
   125   74  130 1    
   126   74   75 1    
   127   75   76 1    
   128   75  131 1    
   129   75  132 1    
   130   76  134 1    
   131   76   77 1    
   132   76  133 1    
   133   77   78 2    
   134   77  135 1    
   135   78  136 1    
   136   78   79 1    
   137   79   80 1    
   138   79  137 1    
   139   79  138 1    
   140   80  139 1    
   141   80  140 1    
   142   80   81 1    
   143   81   82 1    
   144   81  141 1    
   145   81  142 1    
   146   82  144 1    
   147   82  143 1    
   148   82   83 1    
   149   83   84 1    
   150   83  145 1    
   151   83  146 1    
   152   84  148 1    
   153   84  149 1    
   154   84  147 1    
@<TRIPOS>SUBSTRUCTURE
     1 UNK         1 GROUP             0       ****    0 ROOT    
