@<TRIPOS>MOLECULE
261_2_c1
51   58    1
SMALL
USER_CHARGES


@<TRIPOS>ATOM
      1 O1         -0.5545    0.4865   -5.6035 O.co2     1 UNK         0.0000 
      2 C2          0.3619    1.3625   -5.4178 C.2       1 UNK         0.0000 
      3 O3          0.5336    2.4057   -6.0786 O.co2     1 UNK         0.0000 
      4 C4          1.1654    1.2521   -4.0754 C.3       1 UNK         0.0000 
      5 H5          1.7137    2.1859   -3.8959 H         1 UNK         0.0000 
      6 N6          2.0754    0.1184   -4.0925 N.2       1 UNK         0.0000 
      7 C7          1.3819   -0.8436   -3.6384 C.2       1 UNK         0.0000 
      8 O8          0.1161   -0.4582   -3.1897 O.3       1 UNK         0.0000 
      9 C9          0.2561    0.9538   -2.9134 C.3       1 UNK         0.0000 
     10 H10        -0.6458    1.5481   -3.0478 H         1 UNK         0.0000 
     11 C11         0.8055    1.2390   -1.4953 C.3       1 UNK         0.0000 
     12 C12         1.6672   -2.2687   -3.7813 C.ar      1 UNK         0.0000 
     13 C13         0.8916   -3.0073   -4.6953 C.ar      1 UNK         0.0000 
     14 O14        -0.0992   -2.5082   -5.2965 O.co2     1 UNK         0.0000 
     15 C15         1.2728   -4.2852   -5.0775 C.ar      1 UNK         0.0000 
     16 C16         2.4286   -4.8544   -4.5453 C.ar      1 UNK         0.0000 
     17 C17         3.1883   -4.1541   -3.6083 C.ar      1 UNK         0.0000 
     18 C18         2.8081   -2.8629   -3.2206 C.ar      1 UNK         0.0000 
     19 H19         0.1211    0.9697   -0.6972 H         1 UNK         0.0000 
     20 H20         1.0244    2.2931   -1.3677 H         1 UNK         0.0000 
     21 H21         1.7315    0.7111   -1.3009 H         1 UNK         0.0000 
     22 H22         0.7089   -4.7982   -5.8454 H         1 UNK         0.0000 
     23 H23         2.7381   -5.8229   -4.9120 H         1 UNK         0.0000 
     24 H24         4.1126   -4.5712   -3.2419 H         1 UNK         0.0000 
     25 H25         3.4314   -2.2923   -2.5405 H         1 UNK         0.0000 
     26 Fe26       -1.3432   -1.1265   -4.4831 Fe        1 UNK         0.0000 
     27 O27        -2.7950   -2.7295   -0.7703 O.co2     1 UNK         0.0000 
     28 H28        -3.9915   -0.5229   -0.8164 H         1 UNK         0.0000 
     29 O29        -2.6294   -1.6798   -5.9397 O.co2     1 UNK         0.0000 
     30 C30        -2.7954   -2.0802   -1.8244 C.2       1 UNK         0.0000 
     31 C31        -3.6054   -0.7245   -1.8238 C.3       1 UNK         0.0000 
     32 N32        -4.6723   -0.7723   -2.8014 N.2       1 UNK         0.0000 
     33 O33        -2.0659   -2.3071   -2.8675 O.co2     1 UNK         0.0000 
     34 C34        -3.8288   -1.3875   -6.1546 C.ar      1 UNK         0.0000 
     35 H35        -3.3692    2.0841   -0.9739 H         1 UNK         0.0000 
     36 H36        -4.2568    2.0664   -2.4710 H         1 UNK         0.0000 
     37 H37        -3.7847   -2.5530   -7.9476 H         1 UNK         0.0000 
     38 C38        -4.1057   -0.4160   -3.8852 C.2       1 UNK         0.0000 
     39 C39        -3.2792    1.8805   -2.0368 C.3       1 UNK         0.0000 
     40 C40        -2.7726    0.4359   -2.2905 C.3       1 UNK         0.0000 
     41 C41        -4.3947   -1.9339   -7.3004 C.ar      1 UNK         0.0000 
     42 C42        -4.6208   -0.6792   -5.2289 C.ar      1 UNK         0.0000 
     43 O43        -2.8025    0.0725   -3.6898 O.3       1 UNK         0.0000 
     44 H44        -1.8204    0.3354   -1.7821 H         1 UNK         0.0000 
     45 H45        -2.6141    2.6462   -2.4328 H         1 UNK         0.0000 
     46 C46        -5.7530   -1.7695   -7.5540 C.ar      1 UNK         0.0000 
     47 C47        -5.9808   -0.5035   -5.5065 C.ar      1 UNK         0.0000 
     48 H48        -6.1741   -2.2401   -8.4317 H         1 UNK         0.0000 
     49 C49        -6.5485   -1.0477   -6.6647 C.ar      1 UNK         0.0000 
     50 H50        -6.6157   -0.0253   -4.7669 H         1 UNK         0.0000 
     51 H51        -7.6083   -0.9588   -6.8275 H         1 UNK         0.0000 
@<TRIPOS>BOND
     1    1    2 1    
     2    1   26 nc   
     3    2    3 2    
     4    2    4 1    
     5    4    6 1    
     6    4    9 1    
     7    4    5 1    
     8    6    7 2    
     9    7    8 1    
    10    7   12 1    
    11    8    9 1    
    12    8   26 nc   
    13    9   10 1    
    14    9   11 1    
    15   11   19 1    
    16   11   20 1    
    17   11   21 1    
    18   12   13 ar   
    19   12   18 ar   
    20   13   14 1    
    21   13   15 ar   
    22   14   26 nc   
    23   15   16 ar   
    24   15   22 1    
    25   16   17 ar   
    26   16   23 1    
    27   17   18 ar   
    28   17   24 1    
    29   18   25 1    
    30   26   29 nc   
    31   26   33 nc   
    32   26   43 nc   
    33   27   30 2    
    34   28   31 1    
    35   29   34 1    
    36   30   31 1    
    37   30   33 1    
    38   31   32 1    
    39   31   40 1    
    40   32   38 2    
    41   34   41 ar   
    42   34   42 ar   
    43   35   39 1    
    44   36   39 1    
    45   37   41 1    
    46   38   43 1    
    47   38   42 1    
    48   39   45 1    
    49   39   40 1    
    50   40   44 1    
    51   40   43 1    
    52   41   46 ar   
    53   42   47 ar   
    54   46   49 ar   
    55   46   48 1    
    56   47   50 1    
    57   47   49 ar   
    58   49   51 1    
@<TRIPOS>SUBSTRUCTURE
     1 UNK         1 GROUP             0       ****    0 ROOT    
