@<TRIPOS>MOLECULE
160_c1
74   78    1
SMALL
USER_CHARGES


@<TRIPOS>ATOM
      1 O1         -4.4402   -1.7258   -1.9019 O.co2     1 UNK         0.0000 
      2 C2         -5.2648   -1.9225   -2.8257 C.2       1 UNK         0.0000 
      3 O3         -4.9603   -2.1094   -4.0116 O.co2     1 UNK         0.0000 
      4 C4         -6.7603   -1.8631   -2.4387 C.3       1 UNK         0.0000 
      5 H5         -7.0058   -2.7154   -1.7903 H         1 UNK         0.0000 
      6 N6         -7.5296   -2.1562   -3.7291 N.4       1 UNK         0.0000 
      7 H7         -8.5227   -2.1902   -3.5698 H         1 UNK         0.0000 
      8 H8         -7.2801   -1.4576   -4.4086 H         1 UNK         0.0000 
      9 H9         -7.1775   -3.0238   -4.1020 H         1 UNK         0.0000 
     10 C10        -7.1866   -0.4867   -1.8212 C.3       1 UNK         0.0000 
     11 C11        -7.1485    0.8238   -2.6878 C.3       1 UNK         0.0000 
     12 C12        -5.8026    1.3798   -3.2853 C.3       1 UNK         0.0000 
     13 N13        -4.5419    1.2573   -2.4933 N.am      1 UNK         0.0000 
     14 O14        -3.5192    0.7636   -3.1995 O.co2     1 UNK         0.0000 
     15 C15        -4.5150    1.3501   -1.1330 C.2       1 UNK         0.0000 
     16 O16        -3.7061    0.6462   -0.5259 O.co2     1 UNK         0.0000 
     17 C17        -5.4419    2.2180   -0.4814 C.2       1 UNK         0.0000 
     18 C18        -5.4103    3.5759   -0.5412 C.2       1 UNK         0.0000 
     19 C19        -6.5707    4.3634    0.0352 C.3       1 UNK         0.0000 
     20 C20        -4.2904    4.4063   -1.1707 C.3       1 UNK         0.0000 
     21 C21        -3.5598    5.3118   -0.1523 C.3       1 UNK         0.0000 
     22 C22        -2.5056    4.5787    0.7149 C.3       1 UNK         0.0000 
     23 C23        -1.1178    4.6216    0.0613 C.2       1 UNK         0.0000 
     24 O24        -0.4542    5.6580    0.0615 O.2       1 UNK         0.0000 
     25 C25        -0.6592    3.3774   -0.6529 C.3       1 UNK         0.0000 
     26 H26        -1.4468    2.6485   -0.4939 H         1 UNK         0.0000 
     27 N27        -0.6791    3.7460   -2.1115 N.4       1 UNK         0.0000 
     28 H28        -0.5375    2.8772   -2.6212 H         1 UNK         0.0000 
     29 H29        -1.5494    4.1683   -2.3960 H         1 UNK         0.0000 
     30 H30         0.0904    4.3819   -2.2674 H         1 UNK         0.0000 
     31 C31         0.7553    2.9236   -0.1922 C.3       1 UNK         0.0000 
     32 C32         1.4276    1.7939   -1.0094 C.3       1 UNK         0.0000 
     33 C33         1.0186    0.3654   -0.5896 C.3       1 UNK         0.0000 
     34 N34        -0.4158   -0.0160   -0.7155 N.am      1 UNK         0.0000 
     35 O35        -1.1462    0.7256   -1.5590 O.co2     1 UNK         0.0000 
     36 C36        -0.8587   -1.2305   -0.2544 C.2       1 UNK         0.0000 
     37 O37        -2.0581   -1.5135   -0.3291 O.co2     1 UNK         0.0000 
     38 C38         0.1115   -2.2697   -0.1332 C.2       1 UNK         0.0000 
     39 C39         0.7042   -2.9206   -1.1871 C.2       1 UNK         0.0000 
     40 C40         1.7664   -3.9386   -0.8397 C.3       1 UNK         0.0000 
     41 C41         0.5222   -2.8279   -2.7345 C.3       1 UNK         0.0000 
     42 C42        -0.4265   -1.8701   -3.5160 C.3       1 UNK         0.0000 
     43 O43        -1.7746   -1.9355   -3.1521 O.co2     1 UNK         0.0000 
     44 H44        -6.6072   -0.3346   -0.9134 H         1 UNK         0.0000 
     45 H45        -8.2037   -0.6073   -1.4596 H         1 UNK         0.0000 
     46 H46        -7.8856    0.7743   -3.4813 H         1 UNK         0.0000 
     47 H47        -7.5480    1.6160   -2.0537 H         1 UNK         0.0000 
     48 H48        -5.9248    2.4424   -3.5121 H         1 UNK         0.0000 
     49 H49        -5.6693    0.9070   -4.2598 H         1 UNK         0.0000 
     50 H50        -6.2242    1.6907    0.0443 H         1 UNK         0.0000 
     51 H51        -7.3539    3.6967    0.4008 H         1 UNK         0.0000 
     52 H52        -7.0096    4.9915   -0.7410 H         1 UNK         0.0000 
     53 H53        -6.2557    4.9826    0.8734 H         1 UNK         0.0000 
     54 H54        -3.5651    3.7969   -1.7121 H         1 UNK         0.0000 
     55 H55        -4.7537    5.0305   -1.9338 H         1 UNK         0.0000 
     56 H56        -4.2666    5.8119    0.5105 H         1 UNK         0.0000 
     57 H57        -3.0948    6.1407   -0.6907 H         1 UNK         0.0000 
     58 H58        -2.8222    3.5577    0.9507 H         1 UNK         0.0000 
     59 H59        -2.4297    5.0713    1.6836 H         1 UNK         0.0000 
     60 H60         0.7159    2.6222    0.8537 H         1 UNK         0.0000 
     61 H61         1.4355    3.7797   -0.2377 H         1 UNK         0.0000 
     62 H62         2.5021    1.8530   -0.8522 H         1 UNK         0.0000 
     63 H63         1.3158    1.9219   -2.0856 H         1 UNK         0.0000 
     64 H64         1.3495    0.2000    0.4457 H         1 UNK         0.0000 
     65 H65         1.5855   -0.3230   -1.2170 H         1 UNK         0.0000 
     66 H66         0.3774   -2.4856    0.8896 H         1 UNK         0.0000 
     67 H67         1.9324   -4.0471    0.2305 H         1 UNK         0.0000 
     68 H68         2.7175   -3.6557   -1.2850 H         1 UNK         0.0000 
     69 H69         1.4848   -4.9169   -1.2221 H         1 UNK         0.0000 
     70 H70         0.2370   -3.8248   -3.0370 H         1 UNK         0.0000 
     71 H71         1.5114   -2.6635   -3.1496 H         1 UNK         0.0000 
     72 H72        -0.2667   -2.0291   -4.5871 H         1 UNK         0.0000 
     73 H73        -0.0412   -0.8579   -3.3969 H         1 UNK         0.0000 
     74 Fe74       -2.7389   -0.5439   -1.8740 Fe        1 UNK         0.0000 
@<TRIPOS>BOND
     1    1    2 1    
     2    1   74 nc   
     3    2    3 2    
     4    2    4 1    
     5    4    5 1    
     6    4    6 1    
     7    4   10 1    
     8    6    7 1    
     9    6    8 1    
    10    6    9 1    
    11   10   11 1    
    12   10   44 1    
    13   10   45 1    
    14   11   12 1    
    15   11   46 1    
    16   11   47 1    
    17   12   13 1    
    18   12   48 1    
    19   12   49 1    
    20   13   14 1    
    21   13   15 am   BACKBONE|DICT|INTERRES
    22   14   74 nc   
    23   15   16 2    
    24   15   17 1    
    25   16   74 nc   
    26   17   18 2    
    27   17   50 1    
    28   18   19 1    
    29   18   20 1    
    30   19   51 1    
    31   19   52 1    
    32   19   53 1    
    33   20   21 1    
    34   20   54 1    
    35   20   55 1    
    36   21   22 1    
    37   21   56 1    
    38   21   57 1    
    39   22   23 1    
    40   22   58 1    
    41   22   59 1    
    42   23   24 2    
    43   23   25 1    
    44   25   26 1    
    45   25   27 1    
    46   25   31 1    
    47   27   28 1    
    48   27   29 1    
    49   27   30 1    
    50   31   32 1    
    51   31   60 1    
    52   31   61 1    
    53   32   33 1    
    54   32   62 1    
    55   32   63 1    
    56   33   34 1    
    57   33   64 1    
    58   33   65 1    
    59   34   35 1    
    60   34   36 am   BACKBONE|DICT|INTERRES
    61   35   74 nc   
    62   36   37 2    
    63   36   38 1    
    64   37   74 nc   
    65   38   39 2    
    66   38   66 1    
    67   39   40 1    
    68   39   41 1    
    69   40   67 1    
    70   40   68 1    
    71   40   69 1    
    72   41   42 1    
    73   41   70 1    
    74   41   71 1    
    75   42   43 1    
    76   42   72 1    
    77   42   73 1    
    78   43   74 nc   
@<TRIPOS>SUBSTRUCTURE
     1 UNK         1 GROUP             0       ****    0 ROOT    
