@<TRIPOS>MOLECULE
255_c1
144   151    1
SMALL
USER_CHARGES


@<TRIPOS>ATOM
      1 C1          2.8417  -20.1040    7.0600 C.ar      1 UNK         0.0000 
      2 C2          3.3359  -21.3750    6.7889 C.ar      1 UNK         0.0000 
      3 C3          3.6237  -21.7399    5.4752 C.ar      1 UNK         0.0000 
      4 C4          3.4715  -20.8272    4.4289 C.ar      1 UNK         0.0000 
      5 O5          3.6863  -21.2238    3.2359 O.co2     1 UNK         0.0000 
      6 C6          3.0764  -19.5015    4.7211 C.ar      1 UNK         0.0000 
      7 O7          3.0966  -18.6182    3.7985 O.co2     1 UNK         0.0000 
      8 C8          2.6929  -19.1558    6.0420 C.ar      1 UNK         0.0000 
      9 C9          2.0452  -17.8304    6.3986 C.2       1 UNK         0.0000 
     10 O10         0.8738  -17.5596    6.1259 O.2       1 UNK         0.0000 
     11 N11         2.6592  -16.9736    7.2254 N.am      1 UNK         0.0000 
     12 C12         4.0903  -16.8777    7.5699 C.3       1 UNK         0.0000 
     13 H13         4.5020  -17.8801    7.7312 H         1 UNK         0.0000 
     14 C14         4.1667  -16.0358    8.8645 C.3       1 UNK         0.0000 
     15 C15         3.4295  -16.6366   10.0697 C.3       1 UNK         0.0000 
     16 C16         3.5673  -15.7213   11.2892 C.3       1 UNK         0.0000 
     17 N17         2.8287  -16.2583   12.4491 N.pl3     1 UNK         0.0000 
     18 C18         1.8072  -15.6955   13.1182 C.cat     1 UNK         0.0000 
     19 N19         1.2882  -16.3246   14.1794 N.pl3     1 UNK         0.0000 
     20 N20         1.3135  -14.5168   12.7409 N.pl3     1 UNK         0.0000 
     21 H21         1.6722  -14.0479   11.9198 H         1 UNK         0.0000 
     22 H22         0.5717  -14.0384   13.2381 H         1 UNK         0.0000 
     23 C23         4.9308  -16.1543    6.4713 C.2       1 UNK         0.0000 
     24 O24         6.1594  -16.2248    6.4849 O.2       1 UNK         0.0000 
     25 N25         4.2081  -15.3590    5.6663 N.am      1 UNK         0.0000 
     26 C26         4.5289  -14.9022    4.3149 C.3       1 UNK         0.0000 
     27 H27         5.3214  -15.5158    3.8853 H         1 UNK         0.0000 
     28 C28         3.1899  -15.1150    3.5480 C.3       1 UNK         0.0000 
     29 O29         3.0145  -14.4562    2.3216 O.3       1 UNK         0.0000 
     30 C30         4.9350  -13.4312    4.3216 C.2       1 UNK         0.0000 
     31 O31         4.8302  -12.6547    5.2795 O.2       1 UNK         0.0000 
     32 O32         5.3816  -13.0714    3.1193 O.3       1 UNK         0.0000 
     33 C33         5.5362  -11.7186    2.7320 C.3       1 UNK         0.0000 
     34 C34         6.2016  -11.6586    1.3307 C.3       1 UNK         0.0000 
     35 H35         6.1572  -10.6221    0.9829 H         1 UNK         0.0000 
     36 N36         5.5642  -12.5163    0.2953 N.am      1 UNK         0.0000 
     37 C37         4.3644  -12.2388   -0.2456 C.2       1 UNK         0.0000 
     38 O38         3.7244  -11.2373    0.0858 O.2       1 UNK         0.0000 
     39 C39         3.8350  -13.0756   -1.4494 C.3       1 UNK         0.0000 
     40 H40         3.1631  -12.3995   -1.9766 H         1 UNK         0.0000 
     41 C41         4.8844  -13.5272   -2.5185 C.3       1 UNK         0.0000 
     42 C42         5.7587  -12.4146   -3.1287 C.3       1 UNK         0.0000 
     43 C43         6.5339  -12.9070   -4.3638 C.3       1 UNK         0.0000 
     44 N44         7.3857  -14.0781   -4.0680 N.pl3     1 UNK         0.0000 
     45 C45         8.5219  -14.1095   -3.3456 C.cat     1 UNK         0.0000 
     46 N46         9.1539  -15.2717   -3.1344 N.pl3     1 UNK         0.0000 
     47 N47         9.0250  -12.9808   -2.8431 N.pl3     1 UNK         0.0000 
     48 H48         8.4308  -12.1789   -2.7747 H         1 UNK         0.0000 
     49 H49         9.5987  -13.1011   -2.0089 H         1 UNK         0.0000 
     50 N50         2.9633  -14.1884   -1.0412 N.am      1 UNK         0.0000 
     51 C51         3.3822  -15.3707   -0.5503 C.2       1 UNK         0.0000 
     52 O52         4.5836  -15.5444   -0.3875 O.2       1 UNK         0.0000 
     53 C53         2.3111  -16.4175   -0.2280 C.ar      1 UNK         0.0000 
     54 C54         2.6123  -17.5830    0.5241 C.ar      1 UNK         0.0000 
     55 O55         3.7542  -17.7255    1.0735 O.co2     1 UNK         0.0000 
     56 C56         1.6287  -18.5836    0.7095 C.ar      1 UNK         0.0000 
     57 O57         1.8849  -19.6716    1.3219 O.co2     1 UNK         0.0000 
     58 C58         0.3326  -18.3876    0.2389 C.ar      1 UNK         0.0000 
     59 C59         0.0148  -17.2116   -0.4360 C.ar      1 UNK         0.0000 
     60 C60         0.9901  -16.2531   -0.6807 C.ar      1 UNK         0.0000 
     61 C61         7.6794  -12.0290    1.3871 C.2       1 UNK         0.0000 
     62 O62         8.5466  -11.3729    0.8006 O.2       1 UNK         0.0000 
     63 O63         7.9370  -13.1135    2.1364 O.3       1 UNK         0.0000 
     64 C64         9.1931  -13.7740    2.1397 C.3       1 UNK         0.0000 
     65 C65         9.0245  -15.1412    1.4327 C.3       1 UNK         0.0000 
     66 H66         7.9936  -15.4770    1.5686 H         1 UNK         0.0000 
     67 C67         9.1585  -14.9225   -0.1048 C.2       1 UNK         0.0000 
     68 O68        10.1608  -15.3575   -0.7184 O.co2     1 UNK         0.0000 
     69 O69         8.2841  -14.1827   -0.6001 O.co2     1 UNK         0.0000 
     70 N70         9.8747  -16.2566    1.8956 N.am      1 UNK         0.0000 
     71 C71        10.1511  -16.6114    3.1687 C.2       1 UNK         0.0000 
     72 O72        10.0333  -15.8511    4.1309 O.2       1 UNK         0.0000 
     73 C73        10.7120  -18.0498    3.3872 C.3       1 UNK         0.0000 
     74 H74        11.6931  -18.0734    2.9194 H         1 UNK         0.0000 
     75 C75        10.9128  -18.4765    4.8809 C.3       1 UNK         0.0000 
     76 C76        11.9632  -17.6798    5.6772 C.3       1 UNK         0.0000 
     77 C77        11.9321  -18.0338    7.1677 C.3       1 UNK         0.0000 
     78 N78        12.8701  -17.1706    7.9145 N.pl3     1 UNK         0.0000 
     79 C79        12.6823  -15.8669    8.1951 C.cat     1 UNK         0.0000 
     80 N80        13.6663  -15.1734    8.7848 N.pl3     1 UNK         0.0000 
     81 N81        11.5310  -15.2601    7.8929 N.pl3     1 UNK         0.0000 
     82 H82        10.7883  -15.7698    7.4202 H         1 UNK         0.0000 
     83 H83        11.3385  -14.2744    8.0281 H         1 UNK         0.0000 
     84 N84         9.8898  -19.0134    2.6296 N.am      1 UNK         0.0000 
     85 C85         8.6840  -19.5026    2.9881 C.2       1 UNK         0.0000 
     86 O86         8.2851  -19.4300    4.1488 O.2       1 UNK         0.0000 
     87 C87         7.9018  -20.1595    1.8561 C.ar      1 UNK         0.0000 
     88 C88         6.4969  -20.0110    1.7066 C.ar      1 UNK         0.0000 
     89 O89         5.8202  -19.2911    2.5254 O.co2     1 UNK         0.0000 
     90 C90         5.8364  -20.6405    0.6247 C.ar      1 UNK         0.0000 
     91 O91         4.5770  -20.5688    0.4547 O.co2     1 UNK         0.0000 
     92 C92         6.5674  -21.3720   -0.3125 C.ar      1 UNK         0.0000 
     93 C93         7.9471  -21.4852   -0.1882 C.ar      1 UNK         0.0000 
     94 C94         8.6032  -20.8982    0.8829 C.ar      1 UNK         0.0000 
     95 H95         2.5616  -19.8493    8.0662 H         1 UNK         0.0000 
     96 H96         3.4687  -22.0884    7.5825 H         1 UNK         0.0000 
     97 H97         3.9560  -22.7387    5.2410 H         1 UNK         0.0000 
     98 H98         2.1008  -16.1578    7.3975 H         1 UNK         0.0000 
     99 H99         3.7735  -15.0356    8.6613 H         1 UNK         0.0000 
    100 H100        5.2185  -15.8937    9.1384 H         1 UNK         0.0000 
    101 H101        2.3785  -16.8083    9.8398 H         1 UNK         0.0000 
    102 H102        3.8751  -17.6104   10.2792 H         1 UNK         0.0000 
    103 H103        3.3080  -14.6907   11.0389 H         1 UNK         0.0000 
    104 H104        4.6176  -15.6957   11.5799 H         1 UNK         0.0000 
    105 H105        3.1757  -17.1651   12.7370 H         1 UNK         0.0000 
    106 H106        1.6369  -17.2244   14.4894 H         1 UNK         0.0000 
    107 H107        0.5267  -15.9427   14.7297 H         1 UNK         0.0000 
    108 H108        3.2115  -15.4078    5.7946 H         1 UNK         0.0000 
    109 H109        2.3329  -14.8834    4.1826 H         1 UNK         0.0000 
    110 H110        3.1022  -16.1590    3.2711 H         1 UNK         0.0000 
    111 H111        3.2485  -15.1635    1.6996 H         1 UNK         0.0000 
    112 H112        6.1094  -11.1357    3.4522 H         1 UNK         0.0000 
    113 H113        4.5395  -11.2761    2.6922 H         1 UNK         0.0000 
    114 H114        6.0293  -13.3996    0.0733 H         1 UNK         0.0000 
    115 H115        4.3255  -14.0478   -3.3017 H         1 UNK         0.0000 
    116 H116        5.5805  -14.2660   -2.1108 H         1 UNK         0.0000 
    117 H117        6.4426  -12.0497   -2.3618 H         1 UNK         0.0000 
    118 H118        5.1306  -11.5672   -3.4222 H         1 UNK         0.0000 
    119 H119        7.1255  -12.1042   -4.7972 H         1 UNK         0.0000 
    120 H120        5.8245  -13.1988   -5.1404 H         1 UNK         0.0000 
    121 H121        6.9526  -14.9701   -4.2764 H         1 UNK         0.0000 
    122 H122        8.7802  -16.1681   -3.4004 H         1 UNK         0.0000 
    123 H123        9.7250  -15.3230   -2.2486 H         1 UNK         0.0000 
    124 H124        1.9915  -13.9756   -0.9011 H         1 UNK         0.0000 
    125 H125       -0.4106  -19.1511    0.4248 H         1 UNK         0.0000 
    126 H126       -0.9956  -17.0654   -0.7704 H         1 UNK         0.0000 
    127 H127        0.6896  -15.3783   -1.2255 H         1 UNK         0.0000 
    128 H128        9.4328  -13.8807    3.1918 H         1 UNK         0.0000 
    129 H129       10.0001  -13.1841    1.7105 H         1 UNK         0.0000 
    130 H130       10.0836  -16.9012    1.1468 H         1 UNK         0.0000 
    131 H131       11.1629  -19.5403    4.9069 H         1 UNK         0.0000 
    132 H132        9.9692  -18.3702    5.4245 H         1 UNK         0.0000 
    133 H133       12.9489  -17.8849    5.2603 H         1 UNK         0.0000 
    134 H134       11.8073  -16.6081    5.5758 H         1 UNK         0.0000 
    135 H135       12.2577  -19.0693    7.2746 H         1 UNK         0.0000 
    136 H136       10.9269  -17.9963    7.5925 H         1 UNK         0.0000 
    137 H137       13.7352  -17.6305    8.1646 H         1 UNK         0.0000 
    138 H138       14.5586  -15.5986    9.0103 H         1 UNK         0.0000 
    139 H139       13.5780  -14.1904    9.0199 H         1 UNK         0.0000 
    140 H140       10.0620  -19.0689    1.6384 H         1 UNK         0.0000 
    141 H141        6.0374  -21.8361   -1.1277 H         1 UNK         0.0000 
    142 H142        8.4951  -22.0327   -0.9351 H         1 UNK         0.0000 
    143 H143        9.6690  -21.0184    0.9434 H         1 UNK         0.0000 
    144 Fe144       3.8107  -19.5349    2.0639 Fe        1 UNK         0.0000 
@<TRIPOS>BOND
     1    1    2 ar   
     2    1    8 ar   
     3    1   95 1    
     4    2    3 ar   
     5    2   96 1    
     6    3    4 ar   
     7    3   97 1    
     8    4    5 1    
     9    4    6 ar   
    10    5  144 nc   
    11    6    7 1    
    12    6    8 ar   
    13    7  144 nc   
    14    8    9 1    
    15    9   10 2    
    16    9   11 am   BACKBONE|DICT|INTERRES
    17   11   98 1    
    18   11   12 1    
    19   12   14 1    
    20   12   23 1    
    21   12   13 1    
    22   14   15 1    
    23   14   99 1    
    24   14  100 1    
    25   15   16 1    
    26   15  101 1    
    27   15  102 1    
    28   16   17 1    
    29   16  103 1    
    30   16  104 1    
    31   17   18 ar   
    32   17  105 1    
    33   18   19 ar   
    34   18   20 ar   
    35   19  106 1    
    36   19  107 1    
    37   20   21 1    
    38   20   22 1    
    39   23   24 2    
    40   23   25 am   BACKBONE|DICT|INTERRES
    41   25   26 1    
    42   25  108 1    
    43   26   27 1    
    44   26   28 1    
    45   26   30 1    
    46   28   29 1    
    47   28  109 1    
    48   28  110 1    
    49   29  111 1    
    50   30   31 2    
    51   30   32 1    
    52   32   33 1    
    53   33  112 1    
    54   33  113 1    
    55   33   34 1    
    56   34   36 1    
    57   34   61 1    
    58   34   35 1    
    59   36   37 am   BACKBONE|DICT|INTERRES
    60   36  114 1    
    61   37   38 2    
    62   37   39 1    
    63   39   40 1    
    64   39   41 1    
    65   39   50 1    
    66   41   42 1    
    67   41  115 1    
    68   41  116 1    
    69   42   43 1    
    70   42  117 1    
    71   42  118 1    
    72   43   44 1    
    73   43  119 1    
    74   43  120 1    
    75   44   45 ar   
    76   44  121 1    
    77   45   46 ar   
    78   45   47 ar   
    79   46  122 1    
    80   46  123 1    
    81   47   48 1    
    82   47   49 1    
    83   50   51 am   BACKBONE|DICT|INTERRES
    84   50  124 1    
    85   51   52 2    
    86   51   53 1    
    87   53   54 ar   
    88   53   60 ar   
    89   54   55 1    
    90   54   56 ar   
    91   55  144 nc   
    92   56   57 1    
    93   56   58 ar   
    94   57  144 nc   
    95   58   59 ar   
    96   58  125 1    
    97   59   60 ar   
    98   59  126 1    
    99   60  127 1    
   100   61   62 2    
   101   61   63 1    
   102   63   64 1    
   103   64   65 1    
   104   64  128 1    
   105   64  129 1    
   106   65   66 1    
   107   65   67 1    
   108   65   70 1    
   109   67   68 1    
   110   67   69 2    
   111   70   71 am   BACKBONE|DICT|INTERRES
   112   70  130 1    
   113   71   72 2    
   114   71   73 1    
   115   73   74 1    
   116   73   75 1    
   117   73   84 1    
   118   75   76 1    
   119   75  131 1    
   120   75  132 1    
   121   76   77 1    
   122   76  133 1    
   123   76  134 1    
   124   77   78 1    
   125   77  135 1    
   126   77  136 1    
   127   78   79 ar   
   128   78  137 1    
   129   79   80 ar   
   130   79   81 ar   
   131   80  138 1    
   132   80  139 1    
   133   81   82 1    
   134   81   83 1    
   135   84   85 am   BACKBONE|DICT|INTERRES
   136   84  140 1    
   137   85   86 2    
   138   85   87 1    
   139   87   88 ar   
   140   87   94 ar   
   141   88   89 1    
   142   88   90 ar   
   143   89  144 nc   
   144   90   91 1    
   145   90   92 ar   
   146   91  144 nc   
   147   92   93 ar   
   148   92  141 1    
   149   93   94 ar   
   150   93  142 1    
   151   94  143 1    
@<TRIPOS>SUBSTRUCTURE
     1 UNK         1 GROUP             0       ****    0 ROOT    
