@<TRIPOS>MOLECULE
202_c1
152   157    1
SMALL
USER_CHARGES


@<TRIPOS>ATOM
      1 C1         57.4807    2.0169   40.9743 C.3       1 UNK         0.0000 
      2 C2         56.1757    2.3246   40.2120 C.3       1 UNK         0.0000 
      3 C3         56.3837    2.3019   38.6819 C.3       1 UNK         0.0000 
      4 C4         55.2008    2.8210   37.8254 C.3       1 UNK         0.0000 
      5 C5         53.8770    1.9964   37.8079 C.3       1 UNK         0.0000 
      6 C6         52.8598    2.6300   36.8090 C.3       1 UNK         0.0000 
      7 C7         51.3645    2.1883   36.8544 C.3       1 UNK         0.0000 
      8 C8         50.9303    0.8006   36.2875 C.3       1 UNK         0.0000 
      9 C9         50.9853    0.5329   34.7477 C.3       1 UNK         0.0000 
     10 C10        50.1272    1.3888   33.7541 C.3       1 UNK         0.0000 
     11 C11        48.5596    1.3324   33.7676 C.3       1 UNK         0.0000 
     12 C12        47.7901    0.0228   33.3720 C.3       1 UNK         0.0000 
     13 C13        47.8650   -0.5659   31.9162 C.3       1 UNK         0.0000 
     14 C14        47.0173    0.0103   30.7138 C.3       1 UNK         0.0000 
     15 C15        45.4787   -0.3179   30.6119 C.3       1 UNK         0.0000 
     16 C16        44.7765    0.0878   29.2628 C.2       1 UNK         0.0000 
     17 O17        44.9119    1.2256   28.8492 O.2       1 UNK         0.0000 
     18 N18        44.0099   -0.8226   28.6078 N.am      1 UNK         0.0000 
     19 C19        43.1217   -0.6083   27.4135 C.3       1 UNK         0.0000 
     20 H20        43.3248    0.3861   27.0033 H         1 UNK         0.0000 
     21 C21        43.5059   -1.6245   26.2614 C.3       1 UNK         0.0000 
     22 C22        42.9301   -1.5119   24.7919 C.3       1 UNK         0.0000 
     23 C23        41.6472   -2.3634   24.4986 C.3       1 UNK         0.0000 
     24 N24        41.4747   -2.9879   23.1457 N.am      1 UNK         0.0000 
     25 O25        40.5794   -2.3803   22.3655 O.co2     1 UNK         0.0000 
     26 C26        41.8392   -4.2662   22.8949 C.2       1 UNK         0.0000 
     27 O27        41.0616   -4.9689   22.2104 O.co2     1 UNK         0.0000 
     28 C28        43.1538   -4.6444   23.3514 C.2       1 UNK         0.0000 
     29 C29        43.8000   -5.8221   23.2231 C.2       1 UNK         0.0000 
     30 C30        43.2010   -7.0827   22.5931 C.3       1 UNK         0.0000 
     31 C31        45.2403   -5.8057   23.7415 C.3       1 UNK         0.0000 
     32 C32        46.1239   -7.0531   23.6268 C.3       1 UNK         0.0000 
     33 O33        45.7232   -8.0573   24.5464 O.3       1 UNK         0.0000 
     34 C34        41.6141   -0.5517   27.7909 C.2       1 UNK         0.0000 
     35 C35        41.1175   -0.7233   29.0472 C.2       1 UNK         0.0000 
     36 O36        40.8562   -0.2745   26.6928 O.3       1 UNK         0.0000 
     37 C37        39.4671    0.0848   26.8610 C.3       1 UNK         0.0000 
     38 C38        38.5017   -1.1196   27.0725 C.3       1 UNK         0.0000 
     39 C39        37.6759   -1.4137   25.8171 C.2       1 UNK         0.0000 
     40 C40        36.5064   -0.4325   25.6728 C.3       1 UNK         0.0000 
     41 C41        38.1308   -2.4204   25.0355 C.2       1 UNK         0.0000 
     42 C42        37.9075   -3.0236   23.7174 C.2       1 UNK         0.0000 
     43 O43        38.6005   -4.0287   23.4869 O.co2     1 UNK         0.0000 
     44 N44        37.3456   -2.4332   22.6005 N.am      1 UNK         0.0000 
     45 O45        37.7465   -2.7576   21.3542 O.co2     1 UNK         0.0000 
     46 C46        36.2623   -1.4317   22.5563 C.3       1 UNK         0.0000 
     47 C47        34.9623   -1.8133   23.3045 C.3       1 UNK         0.0000 
     48 C48        34.1122   -3.0049   22.8238 C.3       1 UNK         0.0000 
     49 C49        33.1945   -2.7808   21.5659 C.3       1 UNK         0.0000 
     50 H50        32.5755   -1.8921   21.7195 H         1 UNK         0.0000 
     51 C51        32.1558   -3.9657   21.4581 C.2       1 UNK         0.0000 
     52 O52        31.0049   -3.9583   21.8816 O.2       1 UNK         0.0000 
     53 N53        32.6203   -5.0144   20.7396 N.am      1 UNK         0.0000 
     54 C54        33.9978   -4.9737   20.1834 C.3       1 UNK         0.0000 
     55 H55        34.6403   -4.9428   21.0494 H         1 UNK         0.0000 
     56 C56        34.2640   -3.5938   19.4772 C.2       1 UNK         0.0000 
     57 O57        34.6636   -3.3916   18.3344 O.2       1 UNK         0.0000 
     58 N58        33.8861   -2.5650   20.2642 N.am      1 UNK         0.0000 
     59 C59        34.5112   -6.2432   19.4514 C.3       1 UNK         0.0000 
     60 C60        35.9654   -6.6517   19.8376 C.3       1 UNK         0.0000 
     61 C61        37.0265   -5.7295   19.1804 C.3       1 UNK         0.0000 
     62 N62        38.3575   -5.5253   19.8016 N.am      1 UNK         0.0000 
     63 O63        38.3682   -5.6358   21.1318 O.co2     1 UNK         0.0000 
     64 C64        39.3101   -4.8118   19.1324 C.2       1 UNK         0.0000 
     65 O65        39.9983   -3.9923   19.7817 O.co2     1 UNK         0.0000 
     66 C66        39.6487   -5.2517   17.8059 C.2       1 UNK         0.0000 
     67 C67        38.9314   -5.0918   16.6552 C.2       1 UNK         0.0000 
     68 C68        37.6507   -4.2522   16.4788 C.3       1 UNK         0.0000 
     69 C69        39.4446   -5.8541   15.4371 C.3       1 UNK         0.0000 
     70 C70        38.4928   -6.0930   14.2498 C.3       1 UNK         0.0000 
     71 O71        37.3910   -6.9089   14.6275 O.3       1 UNK         0.0000 
     72 H72        57.8861    1.0407   40.7012 H         1 UNK         0.0000 
     73 H73        57.3259    2.0137   42.0522 H         1 UNK         0.0000 
     74 H74        58.2552    2.7572   40.7621 H         1 UNK         0.0000 
     75 H75        55.4052    1.6056   40.4939 H         1 UNK         0.0000 
     76 H76        55.8000    3.3019   40.5225 H         1 UNK         0.0000 
     77 H77        56.6795    1.3011   38.3556 H         1 UNK         0.0000 
     78 H78        57.2438    2.9365   38.4543 H         1 UNK         0.0000 
     79 H79        55.5617    2.9076   36.7970 H         1 UNK         0.0000 
     80 H80        54.9803    3.8490   38.1301 H         1 UNK         0.0000 
     81 H81        54.0839    0.9589   37.5337 H         1 UNK         0.0000 
     82 H82        53.4553    1.9630   38.8165 H         1 UNK         0.0000 
     83 H83        53.2462    2.5589   35.7894 H         1 UNK         0.0000 
     84 H84        52.8496    3.7015   37.0263 H         1 UNK         0.0000 
     85 H85        50.7799    2.9576   36.3482 H         1 UNK         0.0000 
     86 H86        51.0340    2.2366   37.8950 H         1 UNK         0.0000 
     87 H87        49.9093    0.6172   36.6229 H         1 UNK         0.0000 
     88 H88        51.5265    0.0318   36.7832 H         1 UNK         0.0000 
     89 H89        50.7476   -0.5192   34.5845 H         1 UNK         0.0000 
     90 H90        52.0284    0.6285   34.4393 H         1 UNK         0.0000 
     91 H91        50.4601    1.1464   32.7438 H         1 UNK         0.0000 
     92 H92        50.4168    2.4325   33.8920 H         1 UNK         0.0000 
     93 H93        48.2014    2.1388   33.1250 H         1 UNK         0.0000 
     94 H94        48.2314    1.6178   34.7690 H         1 UNK         0.0000 
     95 H95        46.7408    0.1612   33.6377 H         1 UNK         0.0000 
     96 H96        48.1411   -0.7576   34.0495 H         1 UNK         0.0000 
     97 H97        47.6202   -1.6265   32.0043 H         1 UNK         0.0000 
     98 H98        48.9132   -0.5623   31.6142 H         1 UNK         0.0000 
     99 H99        47.4742   -0.4166   29.8192 H         1 UNK         0.0000 
    100 H100       47.1841    1.0862   30.6226 H         1 UNK         0.0000 
    101 H101       45.2830   -1.3649   30.8399 H         1 UNK         0.0000 
    102 H102       44.9570    0.2460   31.3808 H         1 UNK         0.0000 
    103 H103       43.9306   -1.7232   29.0449 H         1 UNK         0.0000 
    104 H104       43.3636   -2.6458   26.6314 H         1 UNK         0.0000 
    105 H105       44.5899   -1.5238   26.1446 H         1 UNK         0.0000 
    106 H106       43.7275   -1.8187   24.1101 H         1 UNK         0.0000 
    107 H107       42.7753   -0.4734   24.4968 H         1 UNK         0.0000 
    108 H108       41.5847   -3.1588   25.2436 H         1 UNK         0.0000 
    109 H109       40.7845   -1.7289   24.6848 H         1 UNK         0.0000 
    110 H110       43.6945   -3.8461   23.8337 H         1 UNK         0.0000 
    111 H111       42.3220   -7.4094   23.1523 H         1 UNK         0.0000 
    112 H112       43.8881   -7.9210   22.5821 H         1 UNK         0.0000 
    113 H113       42.8881   -6.9069   21.5605 H         1 UNK         0.0000 
    114 H114       45.2089   -5.4700   24.7767 H         1 UNK         0.0000 
    115 H115       45.7366   -5.0083   23.1877 H         1 UNK         0.0000 
    116 H116       47.1516   -6.7656   23.8611 H         1 UNK         0.0000 
    117 H117       46.1423   -7.4379   22.6020 H         1 UNK         0.0000 
    118 H118       46.0103   -7.8112   25.4315 H         1 UNK         0.0000 
    119 H119       41.7633   -0.9228   29.8848 H         1 UNK         0.0000 
    120 H120       40.0574   -0.6586   29.2640 H         1 UNK         0.0000 
    121 H121       39.2146    0.5879   25.9230 H         1 UNK         0.0000 
    122 H122       39.3290    0.8581   27.6260 H         1 UNK         0.0000 
    123 H123       39.0824   -1.9996   27.3678 H         1 UNK         0.0000 
    124 H124       37.8398   -0.9414   27.9129 H         1 UNK         0.0000 
    125 H125       36.5329    0.3105   26.4608 H         1 UNK         0.0000 
    126 H126       35.5468   -0.9031   25.8287 H         1 UNK         0.0000 
    127 H127       36.5334    0.1355   24.7577 H         1 UNK         0.0000 
    128 H128       38.9671   -2.9611   25.4698 H         1 UNK         0.0000 
    129 H129       35.9599   -1.2402   21.5261 H         1 UNK         0.0000 
    130 H130       36.6771   -0.4643   22.8317 H         1 UNK         0.0000 
    131 H131       34.3469   -0.9276   23.4111 H         1 UNK         0.0000 
    132 H132       35.2568   -2.1423   24.2872 H         1 UNK         0.0000 
    133 H133       33.4791   -3.2893   23.6676 H         1 UNK         0.0000 
    134 H134       34.7892   -3.8549   22.7150 H         1 UNK         0.0000 
    135 H135       31.9876   -5.7850   20.5861 H         1 UNK         0.0000 
    136 H136       34.0082   -1.6470   19.8697 H         1 UNK         0.0000 
    137 H137       33.8490   -7.0621   19.7397 H         1 UNK         0.0000 
    138 H138       34.3843   -6.1376   18.3721 H         1 UNK         0.0000 
    139 H139       36.1405   -7.6700   19.4953 H         1 UNK         0.0000 
    140 H140       36.0724   -6.7033   20.9254 H         1 UNK         0.0000 
    141 H141       36.6301   -4.7215   19.1695 H         1 UNK         0.0000 
    142 H142       37.0720   -6.0551   18.1439 H         1 UNK         0.0000 
    143 H143       40.5644   -5.8336   17.8026 H         1 UNK         0.0000 
    144 H144       37.3767   -3.6640   17.3568 H         1 UNK         0.0000 
    145 H145       36.7911   -4.8921   16.2664 H         1 UNK         0.0000 
    146 H146       37.7411   -3.5524   15.6534 H         1 UNK         0.0000 
    147 H147       39.7800   -6.8279   15.7933 H         1 UNK         0.0000 
    148 H148       40.3298   -5.3294   15.0934 H         1 UNK         0.0000 
    149 H149       39.0373   -6.6123   13.4608 H         1 UNK         0.0000 
    150 H150       38.1562   -5.1478   13.8146 H         1 UNK         0.0000 
    151 H151       36.8492   -7.1154   13.8586 H         1 UNK         0.0000 
    152 Fe152      39.3757   -3.9477   21.7000 Fe        1 UNK         0.0000 
@<TRIPOS>BOND
     1    1    2 1    
     2    1   72 1    
     3    1   73 1    
     4    1   74 1    
     5    2    3 1    
     6    2   75 1    
     7    2   76 1    
     8    3    4 1    
     9    3   77 1    
    10    3   78 1    
    11    4    5 1    
    12    4   79 1    
    13    4   80 1    
    14    5    6 1    
    15    5   81 1    
    16    5   82 1    
    17    6    7 1    
    18    6   83 1    
    19    6   84 1    
    20    7    8 1    
    21    7   85 1    
    22    7   86 1    
    23    8    9 1    
    24    8   87 1    
    25    8   88 1    
    26    9   10 1    
    27    9   89 1    
    28    9   90 1    
    29   10   11 1    
    30   10   91 1    
    31   10   92 1    
    32   11   12 1    
    33   11   93 1    
    34   11   94 1    
    35   12   13 1    
    36   12   95 1    
    37   12   96 1    
    38   13   14 1    
    39   13   97 1    
    40   13   98 1    
    41   14   15 1    
    42   14   99 1    
    43   14  100 1    
    44   15   16 1    
    45   15  101 1    
    46   15  102 1    
    47   16   17 2    
    48   16   18 am   BACKBONE|DICT|INTERRES
    49   18   19 1    
    50   18  103 1    
    51   19   20 1    
    52   19   21 1    
    53   19   34 1    
    54   21   22 1    
    55   21  104 1    
    56   21  105 1    
    57   22   23 1    
    58   22  106 1    
    59   22  107 1    
    60   23   24 1    
    61   23  108 1    
    62   23  109 1    
    63   24   25 1    
    64   24   26 am   BACKBONE|DICT|INTERRES
    65   25  152 nc   
    66   26   27 2    
    67   26   28 1    
    68   27  152 nc   
    69   28   29 2    
    70   28  110 1    
    71   29   30 1    
    72   29   31 1    
    73   30  111 1    
    74   30  112 1    
    75   30  113 1    
    76   31   32 1    
    77   31  114 1    
    78   31  115 1    
    79   32   33 1    
    80   32  116 1    
    81   32  117 1    
    82   33  118 1    
    83   34   35 2    
    84   34   36 1    
    85   35  119 1    
    86   35  120 1    
    87   36   37 1    
    88   37   38 1    
    89   37  121 1    
    90   37  122 1    
    91   38   39 1    
    92   38  123 1    
    93   38  124 1    
    94   39   40 1    
    95   39   41 2    
    96   40  125 1    
    97   40  126 1    
    98   40  127 1    
    99   41   42 1    
   100   41  128 1    
   101   42   43 2    
   102   42   44 am   BACKBONE|DICT|INTERRES
   103   43  152 nc   
   104   44   45 1    
   105   44   46 1    
   106   45  152 nc   
   107   46   47 1    
   108   46  129 1    
   109   46  130 1    
   110   47   48 1    
   111   47  131 1    
   112   47  132 1    
   113   48  133 1    
   114   48  134 1    
   115   48   49 1    
   116   49   51 1    
   117   49   58 1    
   118   49   50 1    
   119   51   52 2    
   120   51   53 am   BACKBONE|DICT|INTERRES
   121   53   54 1    
   122   53  135 1    
   123   54   56 1    
   124   54   59 1    
   125   54   55 1    
   126   56   57 2    
   127   56   58 am   BACKBONE|DICT|INTERRES
   128   58  136 1    
   129   59   60 1    
   130   59  137 1    
   131   59  138 1    
   132   60   61 1    
   133   60  139 1    
   134   60  140 1    
   135   61   62 1    
   136   61  141 1    
   137   61  142 1    
   138   62   63 1    
   139   62   64 am   BACKBONE|DICT|INTERRES
   140   63  152 nc   
   141   64   65 2    
   142   64   66 1    
   143   65  152 nc   
   144   66   67 2    
   145   66  143 1    
   146   67   68 1    
   147   67   69 1    
   148   68  144 1    
   149   68  145 1    
   150   68  146 1    
   151   69   70 1    
   152   69  147 1    
   153   69  148 1    
   154   70   71 1    
   155   70  149 1    
   156   70  150 1    
   157   71  151 1    
@<TRIPOS>SUBSTRUCTURE
     1 UNK         1 GROUP             0       ****    0 ROOT    
