@<TRIPOS>MOLECULE
024_r3_c1
49   56    1
SMALL
USER_CHARGES


@<TRIPOS>ATOM
      1 Fe1         0.0000    0.0000    0.0000 Fe        1 UNK         0.0000 
      2 O2         -0.1655   -1.8554   -0.0594 O.co2     1 UNK         0.0000 
      3 C3          0.7855   -2.7241    0.3903 C.ar      1 UNK         0.0000 
      4 C4          0.4470   -4.0798    0.4907 C.ar      1 UNK         0.0000 
      5 C5          1.3453   -4.9930    1.0251 C.ar      1 UNK         0.0000 
      6 C6          2.5946   -4.5522    1.4661 C.ar      1 UNK         0.0000 
      7 N7          2.9251   -3.2376    1.3722 N.ar      1 UNK         0.0000 
      8 C8          2.0883   -2.3087    0.8319 C.ar      1 UNK         0.0000 
      9 C9          2.5145   -0.8716    0.8586 C.2       1 UNK         0.0000 
     10 N10         2.1000    0.0000    0.0000 N.pl3     1 UNK         0.0000 
     11 S11         3.7328   -0.2632    2.0220 S.3       1 UNK         0.0000 
     12 C12         3.2136    1.4164    1.5703 C.3       1 UNK         0.0000 
     13 C13         2.5634    1.3651    0.1716 C.3       1 UNK         0.0000 
     14 C14         1.3853    2.3417    0.1415 C.2       1 UNK         0.0000 
     15 O15         0.1090    1.8554    0.0594 O.co2     1 UNK         0.0000 
     16 O16         1.5702    3.5407    0.2725 O.co2     1 UNK         0.0000 
     17 C17         3.5550    1.6824   -0.9634 C.3       1 UNK         0.0000 
     18 H18        -0.5346   -4.4091    0.1769 H         1 UNK         0.0000 
     19 H19         1.0736   -6.0364    1.1147 H         1 UNK         0.0000 
     20 H20         3.2947   -5.2533    1.8958 H         1 UNK         0.0000 
     21 H21         2.4498    1.6272    2.3483 H         1 UNK         0.0000 
     22 H22         4.0170    2.1818    1.6321 H         1 UNK         0.0000 
     23 H23         3.9616    2.7091   -0.8550 H         1 UNK         0.0000 
     24 H24         4.3963    0.9588   -0.9657 H         1 UNK         0.0000 
     25 H25         3.0340    1.6169   -1.9448 H         1 UNK         0.0000 
     26 O26         0.1655    0.0594    1.8554 O.co2     1 UNK         0.0000 
     27 C27        -0.7873   -0.3872    2.7257 C.ar      1 UNK         0.0000 
     28 C28        -0.4443   -0.4885    4.0774 C.ar      1 UNK         0.0000 
     29 C29        -1.3477   -1.0232    4.9932 C.ar      1 UNK         0.0000 
     30 C30        -2.5946   -1.4633    4.5507 C.ar      1 UNK         0.0000 
     31 N31        -2.9243   -1.3683    3.2351 N.ar      1 UNK         0.0000 
     32 C32        -2.0861   -0.8298    2.3066 C.ar      1 UNK         0.0000 
     33 C33        -2.5131   -0.8581    0.8718 C.2       1 UNK         0.0000 
     34 N34        -2.1000    0.0000    0.0000 N.pl3     1 UNK         0.0000 
     35 S35        -3.7306   -2.0236    0.2644 S.3       1 UNK         0.0000 
     36 C36        -3.2125   -1.5732   -1.4160 C.3       1 UNK         0.0000 
     37 C37        -2.5625   -0.1725   -1.3643 C.3       1 UNK         0.0000 
     38 C38        -1.3869   -0.1420   -2.3405 C.2       1 UNK         0.0000 
     39 O39        -0.1090   -0.0594   -1.8554 O.co2     1 UNK         0.0000 
     40 O40        -1.5713   -0.2656   -3.5401 O.co2     1 UNK         0.0000 
     41 C41        -3.5548    0.9599   -1.6814 C.3       1 UNK         0.0000 
     42 H42         0.5354   -0.1757    4.4116 H         1 UNK         0.0000 
     43 H43        -1.0765   -1.1144    6.0373 H         1 UNK         0.0000 
     44 H44        -3.2968   -1.8953    5.2511 H         1 UNK         0.0000 
     45 H45        -2.4478   -2.3487   -1.6272 H         1 UNK         0.0000 
     46 H46        -4.0153   -1.6350   -2.1828 H         1 UNK         0.0000 
     47 H47        -3.9616    0.8526   -2.7092 H         1 UNK         0.0000 
     48 H48        -4.3998    0.9627   -0.9605 H         1 UNK         0.0000 
     49 H49        -3.0374    1.9433   -1.6162 H         1 UNK         0.0000 
@<TRIPOS>BOND
     1    1    2 nc   
     2    1   10 nc   
     3    1   15 nc   
     4    1   26 nc   
     5    1   34 nc   
     6    1   39 nc   
     7    2    3 1    
     8    3    4 ar   
     9    3    8 ar   
    10    4    5 ar   
    11    4   18 1    
    12    5   19 1    
    13    5    6 ar   
    14    6   20 1    
    15    6    7 ar   
    16    7    8 ar   
    17    8    9 1    
    18    9   11 1    
    19    9   10 2    
    20   10   13 1    
    21   11   12 1    
    22   12   22 1    
    23   12   21 1    
    24   12   13 1    
    25   13   17 1    
    26   13   14 1    
    27   14   16 2    
    28   14   15 1    
    29   17   23 1    
    30   17   24 1    
    31   17   25 1    
    32   26   27 1    
    33   27   28 ar   
    34   27   32 ar   
    35   28   42 1    
    36   28   29 ar   
    37   29   43 1    
    38   29   30 ar   
    39   30   44 1    
    40   30   31 ar   
    41   31   32 ar   
    42   32   33 1    
    43   33   35 1    
    44   33   34 2    
    45   34   37 1    
    46   35   36 1    
    47   36   37 1    
    48   36   45 1    
    49   36   46 1    
    50   37   41 1    
    51   37   38 1    
    52   38   39 1    
    53   38   40 2    
    54   41   49 1    
    55   41   48 1    
    56   41   47 1    
@<TRIPOS>SUBSTRUCTURE
     1 UNK         1 GROUP             0       ****    0 ROOT    
