@<TRIPOS>MOLECULE
107_c1
100   105    1
SMALL
USER_CHARGES


@<TRIPOS>ATOM
      1 Fe1         0.3721    1.5379   -1.0605 Fe        1 UNK         0.0000 
      2 O2         -2.6967   -1.9060    1.8414 O.2       1 UNK         0.0000 
      3 C3         -1.6222   -1.7420    2.4151 C.2       1 UNK         0.0000 
      4 C4         -1.3271   -0.4240    3.1516 C.3       1 UNK         0.0000 
      5 C5         -1.5935    0.8684    2.3388 C.3       1 UNK         0.0000 
      6 C6         -0.6669    0.9840    1.1006 C.2       1 UNK         0.0000 
      7 O7         -1.0909    0.4027    0.1214 O.co2     1 UNK         0.0000 
      8 N8          0.5409    1.6769    0.9130 N.2       1 UNK         0.0000 
      9 O9          1.7012    1.1187    0.4924 O.co2     1 UNK         0.0000 
     10 C10         0.9332    2.6650    2.0088 C.3       1 UNK         0.0000 
     11 C11         1.4471    4.0746    1.6206 C.3       1 UNK         0.0000 
     12 C12         1.6954    4.9849    2.8829 C.3       1 UNK         0.0000 
     13 C13         2.2846    6.3871    2.6143 C.3       1 UNK         0.0000 
     14 C14         1.4854    7.2574    1.6303 C.3       1 UNK         0.0000 
     15 N15         1.7534    6.8774    0.2445 N.am      1 UNK         0.0000 
     16 C16         0.9054    7.0232   -0.7802 C.2       1 UNK         0.0000 
     17 O17        -0.2014    7.5478   -0.6626 O.2       1 UNK         0.0000 
     18 C18         1.3957    6.5129   -2.1404 C.3       1 UNK         0.0000 
     19 C19         0.3245    5.7982   -2.9899 C.3       1 UNK         0.0000 
     20 C20        -0.1070    4.4010   -2.4563 C.2       1 UNK         0.0000 
     21 O21         0.4604    3.9101   -1.4596 O.co2     1 UNK         0.0000 
     22 N22        -1.0733    3.7006   -3.1358 N.am      1 UNK         0.0000 
     23 O23        -1.4289    2.4434   -2.8423 O.co2     1 UNK         0.0000 
     24 C24        -1.9585    4.3316   -4.1544 C.3       1 UNK         0.0000 
     25 C25        -1.4328    4.3641   -5.6081 C.3       1 UNK         0.0000 
     26 C26        -1.4114    3.0253   -6.3687 C.3       1 UNK         0.0000 
     27 N27        -0.3188    2.1131   -6.0338 N.am      1 UNK         0.0000 
     28 C28         0.9615    2.2763   -6.3860 C.2       1 UNK         0.0000 
     29 O29         1.3953    3.3017   -6.9070 O.2       1 UNK         0.0000 
     30 C30         1.8667    1.0547   -6.2451 C.3       1 UNK         0.0000 
     31 C31         2.6768    0.9079   -4.9313 C.3       1 UNK         0.0000 
     32 C32         1.8718    0.8064   -3.6268 C.2       1 UNK         0.0000 
     33 O33         1.9066    1.7721   -2.8301 O.co2     1 UNK         0.0000 
     34 N34         1.1507   -0.3150   -3.3426 N.am      1 UNK         0.0000 
     35 O35         0.4251   -0.4957   -2.2462 O.co2     1 UNK         0.0000 
     36 C36         1.2421   -1.5759   -4.0963 C.3       1 UNK         0.0000 
     37 C37         2.2778   -2.5210   -3.4589 C.3       1 UNK         0.0000 
     38 C38         2.3644   -3.8988   -4.1197 C.3       1 UNK         0.0000 
     39 N39         1.3269   -4.8263   -3.6618 N.am      1 UNK         0.0000 
     40 C40         1.5658   -5.9500   -2.9796 C.2       1 UNK         0.0000 
     41 O41         2.6935   -6.2828   -2.6105 O.2       1 UNK         0.0000 
     42 C42         0.3953   -6.9162   -2.7807 C.3       1 UNK         0.0000 
     43 C43         0.3730   -7.6661   -1.4221 C.3       1 UNK         0.0000 
     44 C44        -0.3989   -6.9700   -0.2819 C.2       1 UNK         0.0000 
     45 O45        -1.5510   -6.6057   -0.5112 O.2       1 UNK         0.0000 
     46 N46         0.1284   -6.9125    0.9730 N.am      1 UNK         0.0000 
     47 O47         1.5274   -7.0090    1.1058 O.3       1 UNK         0.0000 
     48 C48        -0.5962   -6.5545    2.2009 C.3       1 UNK         0.0000 
     49 C49        -0.3301   -5.1360    2.7480 C.3       1 UNK         0.0000 
     50 C50        -0.7355   -3.9897    1.8075 C.3       1 UNK         0.0000 
     51 N51        -0.6673   -2.6871    2.4773 N.am      1 UNK         0.0000 
     52 H52        -0.3376   -0.3813    3.6044 H         1 UNK         0.0000 
     53 H53        -2.0147   -0.4227    3.9932 H         1 UNK         0.0000 
     54 H54        -2.6418    0.9253    2.0358 H         1 UNK         0.0000 
     55 H55        -1.5309    1.7205    3.0077 H         1 UNK         0.0000 
     56 H56         0.0836    2.8916    2.6537 H         1 UNK         0.0000 
     57 H57         1.6548    2.2209    2.7110 H         1 UNK         0.0000 
     58 H58         2.3665    3.9981    1.0346 H         1 UNK         0.0000 
     59 H59         0.6838    4.5436    0.9971 H         1 UNK         0.0000 
     60 H60         0.7624    5.1221    3.4417 H         1 UNK         0.0000 
     61 H61         2.3744    4.4891    3.5872 H         1 UNK         0.0000 
     62 H62         2.3371    6.9142    3.5672 H         1 UNK         0.0000 
     63 H63         3.3207    6.2933    2.2865 H         1 UNK         0.0000 
     64 H64         1.7054    8.3154    1.7797 H         1 UNK         0.0000 
     65 H65         0.4217    7.1490    1.8572 H         1 UNK         0.0000 
     66 H66         2.5948    6.3479    0.0753 H         1 UNK         0.0000 
     67 H67         2.2995    5.9101   -2.0648 H         1 UNK         0.0000 
     68 H68         1.7303    7.4035   -2.6672 H         1 UNK         0.0000 
     69 H69        -0.4931    6.4843   -3.2186 H         1 UNK         0.0000 
     70 H70         0.7850    5.6024   -3.9578 H         1 UNK         0.0000 
     71 H71        -2.2438    5.3368   -3.8569 H         1 UNK         0.0000 
     72 H72        -2.9256    3.8113   -4.1632 H         1 UNK         0.0000 
     73 H73        -2.1058    5.0131   -6.1676 H         1 UNK         0.0000 
     74 H74        -0.4630    4.8472   -5.6720 H         1 UNK         0.0000 
     75 H75        -2.3390    2.4844   -6.1697 H         1 UNK         0.0000 
     76 H76        -1.4187    3.2036   -7.4470 H         1 UNK         0.0000 
     77 H77        -0.5400    1.4022   -5.3465 H         1 UNK         0.0000 
     78 H78         1.3287    0.1526   -6.5094 H         1 UNK         0.0000 
     79 H79         2.5901    1.1262   -7.0545 H         1 UNK         0.0000 
     80 H80         3.4218    1.6950   -4.8702 H         1 UNK         0.0000 
     81 H81         3.3077    0.0208   -4.9900 H         1 UNK         0.0000 
     82 H82         0.2624   -2.0694   -4.1279 H         1 UNK         0.0000 
     83 H83         1.4831   -1.4619   -5.1449 H         1 UNK         0.0000 
     84 H84         3.2489   -2.0408   -3.5310 H         1 UNK         0.0000 
     85 H85         2.0875   -2.6348   -2.3961 H         1 UNK         0.0000 
     86 H86         3.3736   -4.2932   -3.9775 H         1 UNK         0.0000 
     87 H87         2.2622   -3.7981   -5.1994 H         1 UNK         0.0000 
     88 H88         0.3648   -4.5574   -3.8104 H         1 UNK         0.0000 
     89 H89         0.5928   -7.6622   -3.5507 H         1 UNK         0.0000 
     90 H90        -0.5763   -6.4981   -3.0494 H         1 UNK         0.0000 
     91 H91        -0.2258   -8.5628   -1.5776 H         1 UNK         0.0000 
     92 H92         1.3529   -8.0578   -1.1478 H         1 UNK         0.0000 
     93 H93         1.6657   -7.8457    1.5577 H         1 UNK         0.0000 
     94 H94        -0.3433   -7.2928    2.9635 H         1 UNK         0.0000 
     95 H95        -1.6710   -6.6670    2.0356 H         1 UNK         0.0000 
     96 H96        -0.8880   -5.0303    3.6795 H         1 UNK         0.0000 
     97 H97         0.7211   -5.0380    3.0186 H         1 UNK         0.0000 
     98 H98        -0.1045   -3.9802    0.9166 H         1 UNK         0.0000 
     99 H99        -1.7375   -4.1917    1.4188 H         1 UNK         0.0000 
    100 H100        0.2161   -2.4165    2.8823 H         1 UNK         0.0000 
@<TRIPOS>BOND
     1    1    7 nc   
     2    1    9 nc   
     3    1   21 nc   
     4    1   23 nc   
     5    1   33 nc   
     6    1   35 nc   
     7    2    3 2    
     8    3   51 am   BACKBONE|DICT|INTERRES
     9    3    4 1    
    10    4   52 1    
    11    4   53 1    
    12    4    5 1    
    13    5   55 1    
    14    5    6 1    
    15    5   54 1    
    16    6    7 2    
    17    6    8 1    
    18    8   10 1    
    19    8    9 1    
    20   10   57 1    
    21   10   56 1    
    22   10   11 1    
    23   11   12 1    
    24   11   58 1    
    25   11   59 1    
    26   12   60 1    
    27   12   61 1    
    28   12   13 1    
    29   13   62 1    
    30   13   14 1    
    31   13   63 1    
    32   14   64 1    
    33   14   65 1    
    34   14   15 1    
    35   15   16 am   BACKBONE|DICT|INTERRES
    36   15   66 1    
    37   16   17 2    
    38   16   18 1    
    39   18   67 1    
    40   18   19 1    
    41   18   68 1    
    42   19   69 1    
    43   19   20 1    
    44   19   70 1    
    45   20   21 2    
    46   20   22 am   BACKBONE|DICT|INTERRES
    47   22   23 1    
    48   22   24 1    
    49   24   71 1    
    50   24   25 1    
    51   24   72 1    
    52   25   26 1    
    53   25   73 1    
    54   25   74 1    
    55   26   27 1    
    56   26   75 1    
    57   26   76 1    
    58   27   77 1    
    59   27   28 am   BACKBONE|DICT|INTERRES
    60   28   30 1    
    61   28   29 2    
    62   30   31 1    
    63   30   78 1    
    64   30   79 1    
    65   31   80 1    
    66   31   32 1    
    67   31   81 1    
    68   32   34 am   BACKBONE|DICT|INTERRES
    69   32   33 2    
    70   34   35 1    
    71   34   36 1    
    72   36   37 1    
    73   36   82 1    
    74   36   83 1    
    75   37   85 1    
    76   37   38 1    
    77   37   84 1    
    78   38   86 1    
    79   38   39 1    
    80   38   87 1    
    81   39   40 am   BACKBONE|DICT|INTERRES
    82   39   88 1    
    83   40   42 1    
    84   40   41 2    
    85   42   43 1    
    86   42   89 1    
    87   42   90 1    
    88   43   92 1    
    89   43   44 1    
    90   43   91 1    
    91   44   46 am   BACKBONE|DICT|INTERRES
    92   44   45 2    
    93   46   47 1    
    94   46   48 1    
    95   47   93 1    
    96   48   49 1    
    97   48   94 1    
    98   48   95 1    
    99   49   97 1    
   100   49   96 1    
   101   49   50 1    
   102   50   51 1    
   103   50   98 1    
   104   50   99 1    
   105   51  100 1    
@<TRIPOS>SUBSTRUCTURE
     1 UNK         1 GROUP             0       ****    0 ROOT    
