@<TRIPOS>MOLECULE
003_c2
82   87    1
SMALL
USER_CHARGES


@<TRIPOS>ATOM
      1 Fe1         0.0000    0.0000    0.0000 Fe        1 UNK         0.0000 
      2 O2          1.2178    6.0282   -3.9637 O.3       1 UNK         0.0000 
      3 C3          0.5248    5.0545   -3.2314 C.3       1 UNK         0.0000 
      4 C4          1.0570    5.0051   -1.7914 C.3       1 UNK         0.0000 
      5 H5          2.1321    4.7688   -1.8831 H         1 UNK         0.0000 
      6 C6          0.8593    6.3415   -1.1182 C.2       1 UNK         0.0000 
      7 O7         -0.3815    6.8368   -0.9407 O.2       1 UNK         0.0000 
      8 O8          1.8225    6.9840   -0.7316 O.3       1 UNK         0.0000 
      9 N9          0.3320    3.9819   -1.0510 N.am      1 UNK         0.0000 
     10 C10         0.8294    2.8911   -0.3820 C.2       1 UNK         0.0000 
     11 O11         0.0000    2.0800    0.0000 O.co2     1 UNK         0.0000 
     12 C12         2.2944    2.6248   -0.0589 C.ar      1 UNK         0.0000 
     13 C13         2.8348    1.3016    0.1294 C.ar      1 UNK         0.0000 
     14 O14         2.0720    0.1826    0.0000 O.co2     1 UNK         0.0000 
     15 C15         4.2027    1.1372    0.4465 C.ar      1 UNK         0.0000 
     16 O16         4.7150   -0.1024    0.6057 O.3       1 UNK         0.0000 
     17 C17         5.0317    2.2493    0.6003 C.ar      1 UNK         0.0000 
     18 C18         4.5155    3.5279    0.4585 C.ar      1 UNK         0.0000 
     19 C19         3.1724    3.7132    0.1426 C.ar      1 UNK         0.0000 
     20 H20         0.7738    6.0749   -4.8499 H         1 UNK         0.0000 
     21 H21         0.6750    4.0591   -3.7059 H         1 UNK         0.0000 
     22 H22        -0.5637    5.2952   -3.2190 H         1 UNK         0.0000 
     23 H23        -0.6981    4.0581   -1.0990 H         1 UNK         0.0000 
     24 H24         5.6456   -0.2569    0.8224 H         1 UNK         0.0000 
     25 H25         6.0785    2.1224    0.8468 H         1 UNK         0.0000 
     26 H26         5.1590    4.3861    0.6045 H         1 UNK         0.0000 
     27 H27         2.8330    4.7319    0.0969 H         1 UNK         0.0000 
     28 O28        -3.4160   -6.3143    1.7911 O.3       1 UNK         0.0000 
     29 C29        -2.8614   -5.3052    0.9919 C.3       1 UNK         0.0000 
     30 C30        -1.3820   -5.1042    1.3532 C.3       1 UNK         0.0000 
     31 H31        -1.3724   -4.8338    2.4251 H         1 UNK         0.0000 
     32 C32        -0.6126   -6.3813    1.1194 C.2       1 UNK         0.0000 
     33 O33        -0.5298   -6.9081   -0.1182 O.2       1 UNK         0.0000 
     34 O34        -0.0619   -6.9471    2.0503 O.3       1 UNK         0.0000 
     35 N35        -0.8277   -4.0484    0.5168 N.am      1 UNK         0.0000 
     36 C36        -0.2163   -2.8792    0.8986 C.2       1 UNK         0.0000 
     37 O37         0.0000   -2.0800    0.0000 O.co2     1 UNK         0.0000 
     38 C38         0.2364   -2.5246    2.3137 C.ar      1 UNK         0.0000 
     39 C39         0.3378   -1.1740    2.8212 C.ar      1 UNK         0.0000 
     40 O40         0.0000   -0.0832    2.0783 O.co2     1 UNK         0.0000 
     41 C41         0.7895   -0.9518    4.1428 C.ar      1 UNK         0.0000 
     42 O42         0.8692    0.3069    4.6263 O.3       1 UNK         0.0000 
     43 C43         1.1587   -2.0240    4.9558 C.ar      1 UNK         0.0000 
     44 C44         1.1003   -3.3197    4.4691 C.ar      1 UNK         0.0000 
     45 C45         0.6557   -3.5646    3.1735 C.ar      1 UNK         0.0000 
     46 H46        -4.3314   -6.4712    1.4416 H         1 UNK         0.0000 
     47 H47        -3.4093   -4.3527    1.1675 H         1 UNK         0.0000 
     48 H48        -2.9473   -5.5852   -0.0838 H         1 UNK         0.0000 
     49 H49        -0.9788   -4.1747   -0.4982 H         1 UNK         0.0000 
     50 H50         1.1731    0.5011    5.5245 H         1 UNK         0.0000 
     51 H51         1.5077   -1.8507    5.9661 H         1 UNK         0.0000 
     52 H52         1.4122   -4.1441    5.0977 H         1 UNK         0.0000 
     53 H53         0.6835   -4.5893    2.8495 H         1 UNK         0.0000 
     54 O54        -6.1831   -3.3766   -2.1430 O.3       1 UNK         0.0000 
     55 C55        -5.2177   -2.8516   -1.2729 C.3       1 UNK         0.0000 
     56 C56        -5.0234   -1.3531   -1.5485 C.3       1 UNK         0.0000 
     57 H57        -4.7086   -1.2804   -2.6058 H         1 UNK         0.0000 
     58 C58        -6.3209   -0.6128   -1.3314 C.2       1 UNK         0.0000 
     59 O59        -6.9019   -0.6008   -0.1154 O.3       1 UNK         0.0000 
     60 O60        -6.8539   -0.0211   -2.2566 O.2       1 UNK         0.0000 
     61 N61        -4.0134   -0.8292   -0.6388 N.am      1 UNK         0.0000 
     62 C62        -2.8351   -0.1931   -0.9436 C.2       1 UNK         0.0000 
     63 O63        -2.0800    0.0000    0.0000 O.co2     1 UNK         0.0000 
     64 C64        -2.4332    0.3166   -2.3285 C.ar      1 UNK         0.0000 
     65 C65        -1.0729    0.4081   -2.8135 C.ar      1 UNK         0.0000 
     66 O66         0.0000    0.0000   -2.0800 O.co2     1 UNK         0.0000 
     67 C67        -0.8226    0.9206   -4.1081 C.ar      1 UNK         0.0000 
     68 O68         0.4440    0.9922   -4.5719 O.3       1 UNK         0.0000 
     69 C69        -1.8742    1.3566   -4.9147 C.ar      1 UNK         0.0000 
     70 C70        -3.1778    1.3039   -4.4490 C.ar      1 UNK         0.0000 
     71 C71        -3.4508    0.8017   -3.1803 C.ar      1 UNK         0.0000 
     72 H72        -6.3414   -4.3108   -1.8481 H         1 UNK         0.0000 
     73 H73        -4.2504   -3.3773   -1.4348 H         1 UNK         0.0000 
     74 H74        -5.5423   -2.9970   -0.2162 H         1 UNK         0.0000 
     75 H75        -4.1837   -1.0256    0.3620 H         1 UNK         0.0000 
     76 H76         0.6579    1.3342   -5.4518 H         1 UNK         0.0000 
     77 H77        -1.6783    1.7506   -5.9040 H         1 UNK         0.0000 
     78 H78        -3.9859    1.6647   -5.0724 H         1 UNK         0.0000 
     79 H79        -4.4796    0.8323   -2.8669 H         1 UNK         0.0000 
     80 H80         1.5215    7.8024   -0.3300 H         1 UNK         0.0000 
     81 H81         0.3786   -7.7375    1.7295 H         1 UNK         0.0000 
     82 H82        -7.7130   -0.0886   -0.1528 H         1 UNK         0.0000 
@<TRIPOS>BOND
     1    1   11 nc   
     2    1   14 nc   
     3    1   37 nc   
     4    1   40 nc   
     5    1   63 nc   
     6    1   66 nc   
     7    2    3 1    
     8    2   20 1    
     9    3   22 1    
    10    3    4 1    
    11    3   21 1    
    12    4    5 1    
    13    4    6 1    
    14    4    9 1    
    15    6    7 2    
    16    6    8 1    
    17    8   80 1    
    18    9   10 am   BACKBONE|DICT|INTERRES
    19    9   23 1    
    20   10   12 1    
    21   10   11 2    
    22   12   13 ar   
    23   12   19 ar   
    24   13   15 ar   
    25   13   14 1    
    26   15   17 ar   
    27   15   16 1    
    28   16   24 1    
    29   17   25 1    
    30   17   18 ar   
    31   18   26 1    
    32   18   19 ar   
    33   19   27 1    
    34   28   29 1    
    35   28   46 1    
    36   29   47 1    
    37   29   30 1    
    38   29   48 1    
    39   30   31 1    
    40   30   32 1    
    41   30   35 1    
    42   32   34 1    
    43   32   33 2    
    44   34   81 1    
    45   35   36 am   BACKBONE|DICT|INTERRES
    46   35   49 1    
    47   36   37 2    
    48   36   38 1    
    49   38   39 ar   
    50   38   45 ar   
    51   39   41 ar   
    52   39   40 1    
    53   41   42 1    
    54   41   43 ar   
    55   42   50 1    
    56   43   51 1    
    57   43   44 ar   
    58   44   52 1    
    59   44   45 ar   
    60   45   53 1    
    61   54   72 1    
    62   54   55 1    
    63   55   74 1    
    64   55   56 1    
    65   55   73 1    
    66   56   57 1    
    67   56   58 1    
    68   56   61 1    
    69   58   59 1    
    70   58   60 2    
    71   59   82 1    
    72   61   75 1    
    73   61   62 am   BACKBONE|DICT|INTERRES
    74   62   63 2    
    75   62   64 1    
    76   64   65 ar   
    77   64   71 ar   
    78   65   66 1    
    79   65   67 ar   
    80   67   68 1    
    81   67   69 ar   
    82   68   76 1    
    83   69   70 ar   
    84   69   77 1    
    85   70   71 ar   
    86   70   78 1    
    87   71   79 1    
@<TRIPOS>SUBSTRUCTURE
     1 UNK         1 GROUP             0       ****    0 ROOT    
