@<TRIPOS>MOLECULE
196_c1
120   125    1
SMALL
USER_CHARGES


@<TRIPOS>ATOM
      1 Fe1         0.5403   -0.0458    1.2196 Fe        1 UNK         0.0000 
      2 C2          0.0574   -7.3454    8.4878 C.3       1 UNK         0.0000 
      3 C3         -0.1797   -6.4016    7.3212 C.2       1 UNK         0.0000 
      4 O4         -1.1086   -5.5987    7.3753 O.2       1 UNK         0.0000 
      5 N5          0.6564   -6.4809    6.2649 N.am      1 UNK         0.0000 
      6 C6          0.5315   -5.7174    4.9914 C.3       1 UNK         0.0000 
      7 H7          1.4272   -5.9837    4.4285 H         1 UNK         0.0000 
      8 C8         -0.6612   -6.2885    4.1684 C.2       1 UNK         0.0000 
      9 O9         -1.3970   -7.1895    4.5902 O.2       1 UNK         0.0000 
     10 O10        -0.7314   -5.8450    2.8771 O.3       1 UNK         0.0000 
     11 C11        -1.5256   -6.6021    1.9401 C.3       1 UNK         0.0000 
     12 C12        -1.8925   -5.9096    0.6091 C.3       1 UNK         0.0000 
     13 C13        -0.8465   -4.9270    0.0877 C.2       1 UNK         0.0000 
     14 C14         0.5298   -5.5316   -0.1637 C.3       1 UNK         0.0000 
     15 C15        -1.1970   -3.6241    0.0351 C.2       1 UNK         0.0000 
     16 C16        -0.3642   -2.4517   -0.0115 C.2       1 UNK         0.0000 
     17 O17        -0.6386   -1.4779    0.6804 O.co2     1 UNK         0.0000 
     18 N18         0.8211   -2.3236   -0.6579 N.am      1 UNK         0.0000 
     19 O19         1.6604   -1.3740   -0.2388 O.co2     1 UNK         0.0000 
     20 C20         1.0968   -2.8332   -2.0040 C.3       1 UNK         0.0000 
     21 C21         1.3221   -1.7198   -3.0655 C.3       1 UNK         0.0000 
     22 C22         1.2348   -2.2494   -4.5063 C.3       1 UNK         0.0000 
     23 C23         1.8515   -1.3421   -5.5991 C.3       1 UNK         0.0000 
     24 H24         2.9164   -1.2338   -5.3681 H         1 UNK         0.0000 
     25 N25         1.6565   -1.9883   -6.9114 N.am      1 UNK         0.0000 
     26 C26         2.6398   -2.4332   -7.7065 C.2       1 UNK         0.0000 
     27 O27         3.8224   -2.2805   -7.4165 O.2       1 UNK         0.0000 
     28 C28         2.2549   -3.1544   -8.9887 C.3       1 UNK         0.0000 
     29 C29         1.2331    0.0636   -5.6914 C.2       1 UNK         0.0000 
     30 O30         0.2296    0.3212   -6.3671 O.2       1 UNK         0.0000 
     31 O31         1.9488    0.9921   -4.9961 O.3       1 UNK         0.0000 
     32 C32         1.6358    2.3823   -5.0925 C.3       1 UNK         0.0000 
     33 C33         0.6845    2.8848   -3.9762 C.3       1 UNK         0.0000 
     34 C34         1.3202    3.1132   -2.5642 C.3       1 UNK         0.0000 
     35 C35         2.4701    2.1181   -2.2119 C.3       1 UNK         0.0000 
     36 C36         0.1928    3.3608   -1.4882 C.3       1 UNK         0.0000 
     37 C37         0.0169    2.3922   -0.3098 C.2       1 UNK         0.0000 
     38 O38         0.6281    1.3358   -0.2172 O.co2     1 UNK         0.0000 
     39 N39        -0.7754    2.6480    0.7557 N.am      1 UNK         0.0000 
     40 O40        -0.8306    1.7371    1.7353 O.co2     1 UNK         0.0000 
     41 C41        -1.2077    3.9977    1.1291 C.3       1 UNK         0.0000 
     42 C42        -0.0244    4.7488    1.7719 C.3       1 UNK         0.0000 
     43 C43        -0.3891    6.0253    2.5401 C.3       1 UNK         0.0000 
     44 C44         0.8468    6.8807    2.9353 C.3       1 UNK         0.0000 
     45 H45         1.3687    7.1692    2.0173 H         1 UNK         0.0000 
     46 N46         0.4089    8.0816    3.6691 N.am      1 UNK         0.0000 
     47 C47         0.5125    9.3423    3.2221 C.2       1 UNK         0.0000 
     48 O48         1.0234    9.6141    2.1374 O.2       1 UNK         0.0000 
     49 C49        -0.0338   10.4489    4.1106 C.3       1 UNK         0.0000 
     50 C50         1.8582    6.1288    3.8270 C.2       1 UNK         0.0000 
     51 O51         1.9288    6.2722    5.0545 O.2       1 UNK         0.0000 
     52 O52         2.6520    5.2843    3.1021 O.3       1 UNK         0.0000 
     53 C53         3.5737    4.3979    3.7391 C.3       1 UNK         0.0000 
     54 C54         3.1786    2.9405    3.4032 C.3       1 UNK         0.0000 
     55 C55         3.9307    1.7921    4.1170 C.2       1 UNK         0.0000 
     56 C56         5.1365    2.1915    4.9607 C.3       1 UNK         0.0000 
     57 C57         3.5529    0.4872    4.0356 C.2       1 UNK         0.0000 
     58 C58         2.4878    0.0122    3.1720 C.2       1 UNK         0.0000 
     59 O59         2.2584    0.4058    2.0158 O.co2     1 UNK         0.0000 
     60 N60         1.4664   -0.7639    3.6103 N.am      1 UNK         0.0000 
     61 O61         0.3817   -0.7101    2.8561 O.co2     1 UNK         0.0000 
     62 C62         1.4639   -1.8167    4.6411 C.3       1 UNK         0.0000 
     63 C63         1.0479   -3.2380    4.1193 C.3       1 UNK         0.0000 
     64 C64         0.6058   -4.1768    5.2623 C.3       1 UNK         0.0000 
     65 H65        -0.8009   -8.0085    8.5879 H         1 UNK         0.0000 
     66 H66         0.1458   -6.7584    9.4003 H         1 UNK         0.0000 
     67 H67         0.9588   -7.9457    8.3635 H         1 UNK         0.0000 
     68 H68         1.3642   -7.2032    6.2849 H         1 UNK         0.0000 
     69 H69        -2.4415   -6.9879    2.3929 H         1 UNK         0.0000 
     70 H70        -0.9470   -7.4941    1.6976 H         1 UNK         0.0000 
     71 H71        -2.8403   -5.3913    0.7638 H         1 UNK         0.0000 
     72 H72        -2.1131   -6.6568   -0.1496 H         1 UNK         0.0000 
     73 H73         0.8118   -6.2244    0.6281 H         1 UNK         0.0000 
     74 H74         1.3216   -4.7835   -0.2155 H         1 UNK         0.0000 
     75 H75         0.5165   -6.0793   -1.1097 H         1 UNK         0.0000 
     76 H76        -2.2007   -3.3391    0.3063 H         1 UNK         0.0000 
     77 H77         0.2698   -3.4611   -2.3279 H         1 UNK         0.0000 
     78 H78         1.9709   -3.4956   -1.9971 H         1 UNK         0.0000 
     79 H79         0.5876   -0.9212   -2.9273 H         1 UNK         0.0000 
     80 H80         2.3056   -1.2676   -2.9025 H         1 UNK         0.0000 
     81 H81         0.1922   -2.4671   -4.7508 H         1 UNK         0.0000 
     82 H82         1.7453   -3.2160   -4.5588 H         1 UNK         0.0000 
     83 H83         0.6941   -2.1486   -7.1692 H         1 UNK         0.0000 
     84 H84         1.1776   -3.2765   -9.0928 H         1 UNK         0.0000 
     85 H85         2.7112   -4.1427   -9.0016 H         1 UNK         0.0000 
     86 H86         2.6231   -2.6025   -9.8517 H         1 UNK         0.0000 
     87 H87         1.2087    2.6044   -6.0711 H         1 UNK         0.0000 
     88 H88         2.5774    2.9297   -5.0623 H         1 UNK         0.0000 
     89 H89        -0.1960    2.2339   -3.9365 H         1 UNK         0.0000 
     90 H90         0.3042    3.8459   -4.3268 H         1 UNK         0.0000 
     91 H91         2.1582    1.0706   -2.2503 H         1 UNK         0.0000 
     92 H92         2.8842    2.3092   -1.2229 H         1 UNK         0.0000 
     93 H93         3.3203    2.2093   -2.9004 H         1 UNK         0.0000 
     94 H94        -0.7902    3.4194   -1.9484 H         1 UNK         0.0000 
     95 H95        -2.0328    3.9395    1.8428 H         1 UNK         0.0000 
     96 H96        -1.6244    4.5570    0.2849 H         1 UNK         0.0000 
     97 H97         0.4664    4.0568    2.4578 H         1 UNK         0.0000 
     98 H98         0.7118    5.0045    1.0056 H         1 UNK         0.0000 
     99 H99        -0.9585    5.7545    3.4313 H         1 UNK         0.0000 
    100 H100       -1.0607    6.6441    1.9398 H         1 UNK         0.0000 
    101 H101       -0.0286    7.9094    4.5642 H         1 UNK         0.0000 
    102 H102       -0.5260   10.0546    5.0012 H         1 UNK         0.0000 
    103 H103        0.7785   11.1040    4.4251 H         1 UNK         0.0000 
    104 H104       -0.7568   11.0404    3.5500 H         1 UNK         0.0000 
    105 H105        4.5615    4.6184    3.3334 H         1 UNK         0.0000 
    106 H106        3.6112    4.5554    4.8183 H         1 UNK         0.0000 
    107 H107        2.1169    2.8191    3.6362 H         1 UNK         0.0000 
    108 H108        3.2868    2.8094    2.3244 H         1 UNK         0.0000 
    109 H109        5.6294    1.3266    5.4137 H         1 UNK         0.0000 
    110 H110        4.8571    2.8626    5.7734 H         1 UNK         0.0000 
    111 H111        5.8869    2.6946    4.3485 H         1 UNK         0.0000 
    112 H112        4.0539   -0.2806    4.6028 H         1 UNK         0.0000 
    113 H113        2.4126   -1.8710    5.1779 H         1 UNK         0.0000 
    114 H114        0.7479   -1.4957    5.4046 H         1 UNK         0.0000 
    115 H115        1.8766   -3.6787    3.5630 H         1 UNK         0.0000 
    116 H116        0.2160   -3.1655    3.4170 H         1 UNK         0.0000 
    117 H117       -0.3370   -3.8246    5.6804 H         1 UNK         0.0000 
    118 H118        1.3246   -4.0349    6.0727 H         1 UNK         0.0000 
    119 H119        1.8471    4.0725   -2.6397 H         1 UNK         0.0000 
    120 H120        0.3521    4.3497   -1.0506 H         1 UNK         0.0000 
@<TRIPOS>BOND
     1    1   17 nc   
     2    1   19 nc   
     3    1   38 nc   
     4    1   40 nc   
     5    1   59 nc   
     6    1   61 nc   
     7    2   65 1    
     8    2   66 1    
     9    2    3 1    
    10    2   67 1    
    11    3    4 2    
    12    3    5 am   BACKBONE|DICT|INTERRES
    13    5   68 1    
    14    5    6 1    
    15    6    7 1    
    16    6   64 1    
    17    6    8 1    
    18    8    9 2    
    19    8   10 1    
    20   10   11 1    
    21   11   69 1    
    22   11   12 1    
    23   11   70 1    
    24   12   71 1    
    25   12   13 1    
    26   12   72 1    
    27   13   15 2    
    28   13   14 1    
    29   14   73 1    
    30   14   74 1    
    31   14   75 1    
    32   15   76 1    
    33   15   16 1    
    34   16   17 2    
    35   16   18 am   BACKBONE|DICT|INTERRES
    36   18   19 1    
    37   18   20 1    
    38   20   21 1    
    39   20   77 1    
    40   20   78 1    
    41   21   79 1    
    42   21   80 1    
    43   21   22 1    
    44   22   23 1    
    45   22   81 1    
    46   22   82 1    
    47   23   24 1    
    48   23   25 1    
    49   23   29 1    
    50   25   26 am   BACKBONE|DICT|INTERRES
    51   25   83 1    
    52   26   27 2    
    53   26   28 1    
    54   28   85 1    
    55   28   84 1    
    56   28   86 1    
    57   29   31 1    
    58   29   30 2    
    59   31   32 1    
    60   32   88 1    
    61   32   33 1    
    62   32   87 1    
    63   33   34 1    
    64   33   89 1    
    65   33   90 1    
    66   34   35 1    
    67   34   36 1    
    68   34  119 1    
    69   35   92 1    
    70   35   91 1    
    71   35   93 1    
    72   36   37 1    
    73   36   94 1    
    74   36  120 1    
    75   37   38 2    
    76   37   39 am   BACKBONE|DICT|INTERRES
    77   39   41 1    
    78   39   40 1    
    79   41   42 1    
    80   41   95 1    
    81   41   96 1    
    82   42   97 1    
    83   42   43 1    
    84   42   98 1    
    85   43   44 1    
    86   43   99 1    
    87   43  100 1    
    88   44   45 1    
    89   44   46 1    
    90   44   50 1    
    91   46  101 1    
    92   46   47 am   BACKBONE|DICT|INTERRES
    93   47   49 1    
    94   47   48 2    
    95   49  103 1    
    96   49  102 1    
    97   49  104 1    
    98   50   51 2    
    99   50   52 1    
   100   52   53 1    
   101   53  106 1    
   102   53   54 1    
   103   53  105 1    
   104   54  107 1    
   105   54   55 1    
   106   54  108 1    
   107   55   56 1    
   108   55   57 2    
   109   56  109 1    
   110   56  110 1    
   111   56  111 1    
   112   57  112 1    
   113   57   58 1    
   114   58   60 am   BACKBONE|DICT|INTERRES
   115   58   59 2    
   116   60   62 1    
   117   60   61 1    
   118   62  114 1    
   119   62  113 1    
   120   62   63 1    
   121   63   64 1    
   122   63  115 1    
   123   63  116 1    
   124   64  117 1    
   125   64  118 1    
@<TRIPOS>SUBSTRUCTURE
     1 UNK         1 GROUP             0       ****    0 ROOT    
