@<TRIPOS>MOLECULE
205_c1
98   104    1
SMALL
USER_CHARGES


@<TRIPOS>ATOM
      1 Fe1        -0.6507    0.4588    2.5437 Fe        1 UNK         0.0000 
      2 C2          1.1154   -4.4800    4.9976 C.ar      1 UNK         0.0000 
      3 C3          0.9075   -3.1457    5.3174 C.ar      1 UNK         0.0000 
      4 C4          0.1545   -2.3119    4.4815 C.ar      1 UNK         0.0000 
      5 O5         -0.0390   -1.1342    4.9155 O.co2     1 UNK         0.0000 
      6 C6         -0.3617   -2.8018    3.2572 C.ar      1 UNK         0.0000 
      7 O7         -1.0211   -2.0986    2.3979 O.co2     1 UNK         0.0000 
      8 C8         -0.1626   -4.1532    2.9545 C.ar      1 UNK         0.0000 
      9 C9          0.5568   -5.0112    3.8276 C.ar      1 UNK         0.0000 
     10 C10         0.6757   -6.4890    3.5601 C.2       1 UNK         0.0000 
     11 O11         1.4287   -7.2185    4.2099 O.2       1 UNK         0.0000 
     12 N12        -0.1491   -7.0016    2.6302 N.am      1 UNK         0.0000 
     13 C13        -0.4818   -8.4288    2.6113 C.3       1 UNK         0.0000 
     14 C14        -0.8626   -8.9914    1.2368 C.3       1 UNK         0.0000 
     15 C15         0.3345   -9.3309    0.3241 C.3       1 UNK         0.0000 
     16 N16         1.0400   -8.0738   -0.2220 N.4       1 UNK         0.0000 
     17 H17         1.3896   -7.5243    0.5562 H         1 UNK         0.0000 
     18 H18         1.8381   -8.3617   -0.7736 H         1 UNK         0.0000 
     19 C19         0.1219   -7.2034   -1.0935 C.3       1 UNK         0.0000 
     20 C20         0.9238   -6.1601   -1.8749 C.3       1 UNK         0.0000 
     21 C21        -0.0433   -5.0651   -2.3446 C.3       1 UNK         0.0000 
     22 C22         0.5839   -3.9246   -3.1622 C.3       1 UNK         0.0000 
     23 N23        -0.1529   -2.6995   -2.8652 N.am      1 UNK         0.0000 
     24 C24         0.3439   -1.6466   -2.2134 C.2       1 UNK         0.0000 
     25 O25         1.5626   -1.5525   -2.0397 O.2       1 UNK         0.0000 
     26 C26        -0.7450   -0.6995   -1.6496 C.3       1 UNK         0.0000 
     27 C27        -0.4475    0.8046   -1.3081 C.3       1 UNK         0.0000 
     28 O28         0.5198    0.8701   -0.2862 O.co2     1 UNK         0.0000 
     29 C29        -1.8175    1.4232   -0.7730 C.2       1 UNK         0.0000 
     30 O30        -2.1405    1.1438    0.4247 O.co2     1 UNK         0.0000 
     31 O31        -2.5377    2.0728   -1.5821 O.co2     1 UNK         0.0000 
     32 C32         0.0116    1.5335   -2.6220 C.3       1 UNK         0.0000 
     33 C33         0.6471    2.9290   -2.5339 C.2       1 UNK         0.0000 
     34 O34         1.8704    3.0972   -2.4955 O.2       1 UNK         0.0000 
     35 N35        -0.1663    3.9452   -2.8475 N.am      1 UNK         0.0000 
     36 C36         0.2887    5.0778   -3.6553 C.3       1 UNK         0.0000 
     37 C37         1.1964    6.0971   -2.9362 C.3       1 UNK         0.0000 
     38 C38         0.4735    6.9828   -1.9138 C.3       1 UNK         0.0000 
     39 C39         1.3446    8.1918   -1.5483 C.3       1 UNK         0.0000 
     40 N40         0.6311    9.0747   -0.5142 N.4       1 UNK         0.0000 
     41 H41        -0.3515    9.1220   -0.7465 H         1 UNK         0.0000 
     42 H42         1.0202   10.0016   -0.5644 H         1 UNK         0.0000 
     43 C43         0.7919    8.5964    0.9314 C.3       1 UNK         0.0000 
     44 C44         0.1420    9.6193    1.8913 C.3       1 UNK         0.0000 
     45 C45         0.3029    9.2958    3.3948 C.3       1 UNK         0.0000 
     46 N46        -0.0647    7.9191    3.6941 N.am      1 UNK         0.0000 
     47 C47         0.7320    6.8541    3.5106 C.2       1 UNK         0.0000 
     48 O48         1.9222    6.9986    3.2371 O.2       1 UNK         0.0000 
     49 C49         0.0257    5.5257    3.5387 C.ar      1 UNK         0.0000 
     50 C50         0.7837    4.3529    3.4419 C.ar      1 UNK         0.0000 
     51 C51         0.1880    3.0981    3.5782 C.ar      1 UNK         0.0000 
     52 O52         0.9989    2.1196    3.5640 O.co2     1 UNK         0.0000 
     53 C53        -1.2235    3.0125    3.7598 C.ar      1 UNK         0.0000 
     54 O54        -1.9076    1.9559    3.9691 O.co2     1 UNK         0.0000 
     55 C55        -1.9753    4.1813    3.7723 C.ar      1 UNK         0.0000 
     56 C56        -1.3715    5.4279    3.6732 C.ar      1 UNK         0.0000 
     57 H57         1.6595   -5.0945    5.7029 H         1 UNK         0.0000 
     58 H58         1.3246   -2.7299    6.2288 H         1 UNK         0.0000 
     59 H59        -0.5799   -4.5110    2.0182 H         1 UNK         0.0000 
     60 H60        -0.8467   -6.3196    2.3487 H         1 UNK         0.0000 
     61 H61        -1.2825   -8.6040    3.3342 H         1 UNK         0.0000 
     62 H62         0.3586   -9.0181    2.9924 H         1 UNK         0.0000 
     63 H63        -1.5925   -8.3417    0.7547 H         1 UNK         0.0000 
     64 H64        -1.4051   -9.9185    1.4170 H         1 UNK         0.0000 
     65 H65         1.1064   -9.8995    0.8459 H         1 UNK         0.0000 
     66 H66         0.0196   -9.8941   -0.5568 H         1 UNK         0.0000 
     67 H67        -0.4313   -7.8675   -1.7625 H         1 UNK         0.0000 
     68 H68        -0.5628   -6.7295   -0.3872 H         1 UNK         0.0000 
     69 H69         1.4214   -6.6111   -2.7353 H         1 UNK         0.0000 
     70 H70         1.7018   -5.7115   -1.2521 H         1 UNK         0.0000 
     71 H71        -0.8656   -5.4879   -2.9242 H         1 UNK         0.0000 
     72 H72        -0.5009   -4.6417   -1.4446 H         1 UNK         0.0000 
     73 H73         1.6423   -3.8278   -2.8928 H         1 UNK         0.0000 
     74 H74         0.5694   -4.1329   -4.2353 H         1 UNK         0.0000 
     75 H75        -1.1452   -2.6684   -3.0291 H         1 UNK         0.0000 
     76 H76        -1.0787   -1.1891   -0.7331 H         1 UNK         0.0000 
     77 H77        -1.6062   -0.7339   -2.3189 H         1 UNK         0.0000 
     78 H78         0.7696    0.9290   -3.1022 H         1 UNK         0.0000 
     79 H79        -0.8142    1.5580   -3.3304 H         1 UNK         0.0000 
     80 H80        -1.1518    3.7339   -2.7071 H         1 UNK         0.0000 
     81 H81        -0.5966    5.5775   -4.0515 H         1 UNK         0.0000 
     82 H82         0.8198    4.6906   -4.5316 H         1 UNK         0.0000 
     83 H83         2.0287    5.5859   -2.4469 H         1 UNK         0.0000 
     84 H84         1.6612    6.7135   -3.7058 H         1 UNK         0.0000 
     85 H85         0.2260    6.3798   -1.0366 H         1 UNK         0.0000 
     86 H86        -0.4741    7.3219   -2.3357 H         1 UNK         0.0000 
     87 H87         1.4884    8.8466   -2.4099 H         1 UNK         0.0000 
     88 H88         2.3226    7.9239   -1.1409 H         1 UNK         0.0000 
     89 H89         0.3121    7.6146    0.9537 H         1 UNK         0.0000 
     90 H90         1.8663    8.4914    1.1039 H         1 UNK         0.0000 
     91 H91        -0.9237    9.6956    1.6741 H         1 UNK         0.0000 
     92 H92         0.5649   10.6073    1.7216 H         1 UNK         0.0000 
     93 H93        -0.3309    9.9434    4.0059 H         1 UNK         0.0000 
     94 H94         1.3357    9.4568    3.7193 H         1 UNK         0.0000 
     95 H95        -0.9774    7.7033    4.0637 H         1 UNK         0.0000 
     96 H96         1.8573    4.4042    3.2860 H         1 UNK         0.0000 
     97 H97        -3.0498    4.1154    3.8850 H         1 UNK         0.0000 
     98 H98        -2.0185    6.2898    3.7381 H         1 UNK         0.0000 
@<TRIPOS>BOND
     1    1    5 nc   
     2    1    7 nc   
     3    1   28 nc   
     4    1   30 nc   
     5    1   52 nc   
     6    1   54 nc   
     7    2    3 ar   
     8    2   57 1    
     9    2    9 ar   
    10    3   58 1    
    11    3    4 ar   
    12    4    5 1    
    13    4    6 ar   
    14    6    7 1    
    15    6    8 ar   
    16    8    9 ar   
    17    8   59 1    
    18    9   10 1    
    19   10   11 2    
    20   10   12 am   BACKBONE|DICT|INTERRES
    21   12   13 1    
    22   12   60 1    
    23   13   62 1    
    24   13   61 1    
    25   13   14 1    
    26   14   64 1    
    27   14   15 1    
    28   14   63 1    
    29   15   65 1    
    30   15   16 1    
    31   15   66 1    
    32   16   17 1    
    33   16   18 1    
    34   16   19 1    
    35   19   68 1    
    36   19   20 1    
    37   19   67 1    
    38   20   70 1    
    39   20   21 1    
    40   20   69 1    
    41   21   72 1    
    42   21   22 1    
    43   21   71 1    
    44   22   23 1    
    45   22   73 1    
    46   22   74 1    
    47   23   24 am   BACKBONE|DICT|INTERRES
    48   23   75 1    
    49   24   25 2    
    50   24   26 1    
    51   26   27 1    
    52   26   76 1    
    53   26   77 1    
    54   27   29 1    
    55   27   28 1    
    56   27   32 1    
    57   29   30 1    
    58   29   31 2    
    59   32   33 1    
    60   32   78 1    
    61   32   79 1    
    62   33   34 2    
    63   33   35 am   BACKBONE|DICT|INTERRES
    64   35   36 1    
    65   35   80 1    
    66   36   37 1    
    67   36   81 1    
    68   36   82 1    
    69   37   83 1    
    70   37   38 1    
    71   37   84 1    
    72   38   39 1    
    73   38   85 1    
    74   38   86 1    
    75   39   88 1    
    76   39   40 1    
    77   39   87 1    
    78   40   43 1    
    79   40   41 1    
    80   40   42 1    
    81   43   89 1    
    82   43   90 1    
    83   43   44 1    
    84   44   45 1    
    85   44   91 1    
    86   44   92 1    
    87   45   46 1    
    88   45   94 1    
    89   45   93 1    
    90   46   47 am   BACKBONE|DICT|INTERRES
    91   46   95 1    
    92   47   48 2    
    93   47   49 1    
    94   49   56 ar   
    95   49   50 ar   
    96   50   51 ar   
    97   50   96 1    
    98   51   53 ar   
    99   51   52 1    
   100   53   55 ar   
   101   53   54 1    
   102   55   97 1    
   103   55   56 ar   
   104   56   98 1    
@<TRIPOS>SUBSTRUCTURE
     1 UNK         1 GROUP             0       ****    0 ROOT    
