@<TRIPOS>MOLECULE
157_CD_c1
178   182    1
SMALL
USER_CHARGES


@<TRIPOS>ATOM
      1 Fe1         3.3886   -2.6815    3.4883 Fe        1 UNK         0.0000 
      2 C2          7.7532   -4.8684    4.9931 C.3       1 UNK         0.0000 
      3 C3          7.7750   -3.9517    3.7498 C.3       1 UNK         0.0000 
      4 C4          6.3820   -3.4667    3.2678 C.2       1 UNK         0.0000 
      5 O5          5.3476   -3.9308    3.7799 O.co2     1 UNK         0.0000 
      6 N6          6.2549   -2.4802    2.3275 N.am      1 UNK         0.0000 
      7 O7          5.0674   -2.0291    1.9019 O.co2     1 UNK         0.0000 
      8 C8          7.4144   -1.7470    1.7646 C.3       1 UNK         0.0000 
      9 C9          7.1957   -1.0666    0.3892 C.3       1 UNK         0.0000 
     10 C10         8.5170   -0.6419   -0.2487 C.3       1 UNK         0.0000 
     11 C11         8.4929    0.6209   -1.1421 C.3       1 UNK         0.0000 
     12 H12         9.4876    0.5948   -1.5964 H         1 UNK         0.0000 
     13 N13         7.5798    0.6197   -2.3020 N.am      1 UNK         0.0000 
     14 C14         7.7757   -0.1286   -3.4043 C.2       1 UNK         0.0000 
     15 O15         8.5599   -1.0790   -3.4296 O.2       1 UNK         0.0000 
     16 C16         7.0801    0.3249   -4.7241 C.3       1 UNK         0.0000 
     17 H17         6.6645    1.3181   -4.5433 H         1 UNK         0.0000 
     18 C18         8.1219    0.4652   -5.8805 C.3       1 UNK         0.0000 
     19 O19         8.4295   -0.7523   -6.5525 O.3       1 UNK         0.0000 
     20 N20         5.9662   -0.6036   -5.0449 N.3       1 UNK         0.0000 
     21 C21         5.2432   -0.3105   -6.2758 C.3       1 UNK         0.0000 
     22 O22         4.8891    1.0342   -6.5210 O.3       1 UNK         0.0000 
     23 C23         1.2317   -1.7164   -7.1682 C.3       1 UNK         0.0000 
     24 H24         1.7774   -0.8456   -6.7926 H         1 UNK         0.0000 
     25 C25         1.3302   -1.6750   -8.7131 C.3       1 UNK         0.0000 
     26 C26         0.6171   -0.4847   -9.3627 C.3       1 UNK         0.0000 
     27 C27         0.9322   -2.9891   -9.3950 C.3       1 UNK         0.0000 
     28 N28        -0.1218   -1.7027   -6.5767 N.am      1 UNK         0.0000 
     29 C29        -0.3147   -1.8230   -5.2470 C.2       1 UNK         0.0000 
     30 O30         0.6195   -2.0136   -4.4679 O.2       1 UNK         0.0000 
     31 C31        -1.7405   -1.6886   -4.6781 C.3       1 UNK         0.0000 
     32 N32        -1.6649   -1.5308   -3.2162 N.am      1 UNK         0.0000 
     33 C33        -2.7464   -1.3956   -2.4219 C.2       1 UNK         0.0000 
     34 O34        -3.8898   -1.5509   -2.8413 O.2       1 UNK         0.0000 
     35 C35        -2.5385   -0.9550   -0.9468 C.3       1 UNK         0.0000 
     36 C36        -2.4439   -2.1459    0.0746 C.3       1 UNK         0.0000 
     37 C37        -1.0087   -2.5926    0.4278 C.3       1 UNK         0.0000 
     38 C38        -0.8756   -3.3015    1.8168 C.3       1 UNK         0.0000 
     39 N39         0.5130   -3.4898    2.3294 N.am      1 UNK         0.0000 
     40 O40         1.3263   -2.4664    2.0470 O.co2     1 UNK         0.0000 
     41 C41         0.9171   -4.5533    3.1001 C.2       1 UNK         0.0000 
     42 O42         2.0837   -4.5930    3.5223 O.co2     1 UNK         0.0000 
     43 C43        -0.0705   -5.6565    3.5644 C.3       1 UNK         0.0000 
     44 C44         0.4317   -6.4965    4.7662 C.3       1 UNK         0.0000 
     45 N45        -3.5444    0.0782   -0.5907 N.am      1 UNK         0.0000 
     46 C46        -4.7873   -0.0477   -0.0710 C.2       1 UNK         0.0000 
     47 O47        -5.3219   -1.1247    0.1946 O.2       1 UNK         0.0000 
     48 C48        -5.5471    1.2798    0.2165 C.3       1 UNK         0.0000 
     49 H49        -5.2181    1.9884   -0.5442 H         1 UNK         0.0000 
     50 N50        -7.0120    1.1262   -0.0613 N.am      1 UNK         0.0000 
     51 C51        -8.0834    1.7834    0.4626 C.2       1 UNK         0.0000 
     52 O52        -7.9772    2.5023    1.4509 O.2       1 UNK         0.0000 
     53 C53        -9.4647    1.6514   -0.2740 C.3       1 UNK         0.0000 
     54 C54       -10.7599    2.1494    0.4374 C.2       1 UNK         0.0000 
     55 C55       -12.0047    2.2135   -0.1219 C.2       1 UNK         0.0000 
     56 C56       -13.3082    2.6730    0.5752 C.3       1 UNK         0.0000 
     57 C57       -14.5981    2.8181   -0.3079 C.3       1 UNK         0.0000 
     58 C58       -15.9181    3.0879    0.4883 C.3       1 UNK         0.0000 
     59 C59       -17.1922    3.3683   -0.3651 C.3       1 UNK         0.0000 
     60 C60       -18.4936    3.4977    0.4715 C.3       1 UNK         0.0000 
     61 C61       -19.7573    3.8356   -0.3482 C.3       1 UNK         0.0000 
     62 C62        -5.1442    1.9056    1.6030 C.3       1 UNK         0.0000 
     63 O63        -3.6992    1.9506    1.8614 O.3       1 UNK         0.0000 
     64 C64        -3.1863    2.8256    2.7999 C.2       1 UNK         0.0000 
     65 O65        -3.9039    3.6430    3.3786 O.2       1 UNK         0.0000 
     66 C66        -1.6323    2.7722    3.1284 C.3       1 UNK         0.0000 
     67 N67        -1.3216    3.9782    3.9285 N.am      1 UNK         0.0000 
     68 C68        -0.3078    4.4737    4.6697 C.2       1 UNK         0.0000 
     69 O69        -0.5242    5.5449    5.2294 O.2       1 UNK         0.0000 
     70 C70         1.1190    3.8587    4.8684 C.3       1 UNK         0.0000 
     71 H71         1.5401    4.6887    5.4449 H         1 UNK         0.0000 
     72 C72         1.2860    2.7185    5.9224 C.3       1 UNK         0.0000 
     73 C73         1.5372    1.3025    5.3769 C.3       1 UNK         0.0000 
     74 C74         2.5406    0.4642    6.2240 C.3       1 UNK         0.0000 
     75 N75         2.9831   -0.7926    5.5456 N.am      1 UNK         0.0000 
     76 O76         3.1815   -0.6538    4.2324 O.co2     1 UNK         0.0000 
     77 C77         3.1206   -2.0075    6.1509 C.2       1 UNK         0.0000 
     78 O78         3.2805   -2.9747    5.3908 O.co2     1 UNK         0.0000 
     79 C79         3.1792   -2.1708    7.6893 C.3       1 UNK         0.0000 
     80 C80         3.9926   -3.4093    8.1381 C.3       1 UNK         0.0000 
     81 N81         2.0346    3.9239    3.7069 N.am      1 UNK         0.0000 
     82 C82         3.3892    3.9174    3.7538 C.2       1 UNK         0.0000 
     83 O83         4.0389    3.5202    4.7214 O.2       1 UNK         0.0000 
     84 C84         4.1218    4.5909    2.5734 C.3       1 UNK         0.0000 
     85 N85         5.3001    3.8558    2.0704 N.am      1 UNK         0.0000 
     86 C86         6.0057    4.3165    1.0141 C.2       1 UNK         0.0000 
     87 O87         5.6473    5.3324    0.4112 O.2       1 UNK         0.0000 
     88 C88         7.2827    3.6567    0.6644 C.2       1 UNK         0.0000 
     89 C89         8.4830    4.6091    0.8187 C.3       1 UNK         0.0000 
     90 N90         7.2874    2.4557    0.1812 N.2       1 UNK         0.0000 
     91 C91         8.5561    1.9686   -0.3648 C.3       1 UNK         0.0000 
     92 H92         7.3927   -4.3389    5.8704 H         1 UNK         0.0000 
     93 H93         7.1415   -5.7505    4.8313 H         1 UNK         0.0000 
     94 H94         8.7558   -5.2125    5.2251 H         1 UNK         0.0000 
     95 H95         8.2565   -4.4806    2.9271 H         1 UNK         0.0000 
     96 H96         8.3994   -3.0817    3.9605 H         1 UNK         0.0000 
     97 H97         7.7464   -0.9788    2.4755 H         1 UNK         0.0000 
     98 H98         8.2753   -2.4186    1.6620 H         1 UNK         0.0000 
     99 H99         6.6948   -1.7567   -0.2824 H         1 UNK         0.0000 
    100 H100        6.5326   -0.2142    0.5071 H         1 UNK         0.0000 
    101 H101        8.8851   -1.4824   -0.8377 H         1 UNK         0.0000 
    102 H102        9.2778   -0.4918    0.5167 H         1 UNK         0.0000 
    103 H103        6.8482    1.3157   -2.3162 H         1 UNK         0.0000 
    104 H104        9.0619    0.8822   -5.5141 H         1 UNK         0.0000 
    105 H105        7.7443    1.1615   -6.6296 H         1 UNK         0.0000 
    106 H106        9.3704   -0.7634   -6.7477 H         1 UNK         0.0000 
    107 H107        6.4663   -1.4735   -5.2053 H         1 UNK         0.0000 
    108 H108        2.3918   -1.5440   -8.9331 H         1 UNK         0.0000 
    109 H109       -0.4652   -0.5807   -9.2996 H         1 UNK         0.0000 
    110 H110        0.9044    0.4540   -8.8923 H         1 UNK         0.0000 
    111 H111        0.8798   -0.4127  -10.4192 H         1 UNK         0.0000 
    112 H112        1.2033   -2.9693  -10.4533 H         1 UNK         0.0000 
    113 H113       -0.1390   -3.1787   -9.3240 H         1 UNK         0.0000 
    114 H114        1.4586   -3.8269   -8.9392 H         1 UNK         0.0000 
    115 H115       -0.9037   -1.4925   -7.1806 H         1 UNK         0.0000 
    116 H116       -2.2145   -0.8129   -5.1193 H         1 UNK         0.0000 
    117 H117       -2.3309   -2.5596   -4.9575 H         1 UNK         0.0000 
    118 H118       -0.7149   -1.4912   -2.8608 H         1 UNK         0.0000 
    119 H119       -1.4074   -2.6934    2.5556 H         1 UNK         0.0000 
    120 H120       -1.4420   -4.2372    1.7875 H         1 UNK         0.0000 
    121 H121       -1.0292   -5.2085    3.8457 H         1 UNK         0.0000 
    122 H122       -0.2583   -6.3152    2.7154 H         1 UNK         0.0000 
    123 H123        1.3949   -6.9623    4.5850 H         1 UNK         0.0000 
    124 H124       -0.2650   -7.2966    4.9915 H         1 UNK         0.0000 
    125 H125        0.5138   -5.8923    5.6638 H         1 UNK         0.0000 
    126 H126       -3.2508    1.0016   -0.8687 H         1 UNK         0.0000 
    127 H127       -7.1806    0.4537   -0.7970 H         1 UNK         0.0000 
    128 H128       -9.3741    2.2221   -1.1988 H         1 UNK         0.0000 
    129 H129       -9.6095    0.6069   -0.5450 H         1 UNK         0.0000 
    130 H130      -10.6530    2.4572    1.4701 H         1 UNK         0.0000 
    131 H131      -12.1313    1.9107   -1.1523 H         1 UNK         0.0000 
    132 H132      -13.5165    1.9550    1.3692 H         1 UNK         0.0000 
    133 H133      -13.1086    3.6286    1.0618 H         1 UNK         0.0000 
    134 H134      -14.7395    1.9100   -0.8959 H         1 UNK         0.0000 
    135 H135      -14.4551    3.6207   -1.0333 H         1 UNK         0.0000 
    136 H136      -16.1216    2.2308    1.1330 H         1 UNK         0.0000 
    137 H137      -15.7694    3.9342    1.1611 H         1 UNK         0.0000 
    138 H138      -17.0533    4.2867   -0.9384 H         1 UNK         0.0000 
    139 H139      -17.3295    2.5744   -1.1011 H         1 UNK         0.0000 
    140 H140      -18.3663    4.2645    1.2372 H         1 UNK         0.0000 
    141 H141      -18.6755    2.5674    1.0120 H         1 UNK         0.0000 
    142 H142      -19.6727    4.8020   -0.8469 H         1 UNK         0.0000 
    143 H143      -19.9620    3.0835   -1.1110 H         1 UNK         0.0000 
    144 H144      -20.6407    3.8863    0.2926 H         1 UNK         0.0000 
    145 H145       -5.6523    1.3626    2.4035 H         1 UNK         0.0000 
    146 H146       -5.5705    2.9135    1.6349 H         1 UNK         0.0000 
    147 H147       -1.0030    2.7673    2.2379 H         1 UNK         0.0000 
    148 H148       -1.3935    1.8819    3.7131 H         1 UNK         0.0000 
    149 H149       -2.1474    4.5723    3.9705 H         1 UNK         0.0000 
    150 H150        2.1358    2.9977    6.5476 H         1 UNK         0.0000 
    151 H151        0.4303    2.7009    6.5953 H         1 UNK         0.0000 
    152 H152        0.6094    0.7453    5.2989 H         1 UNK         0.0000 
    153 H153        1.9373    1.4092    4.3770 H         1 UNK         0.0000 
    154 H154        2.1192    0.3378    7.2311 H         1 UNK         0.0000 
    155 H155        3.4331    1.0825    6.3678 H         1 UNK         0.0000 
    156 H156        2.1681   -2.2370    8.0844 H         1 UNK         0.0000 
    157 H157        3.6188   -1.2797    8.1324 H         1 UNK         0.0000 
    158 H158        3.9832   -3.5212    9.2188 H         1 UNK         0.0000 
    159 H159        3.5910   -4.3275    7.7320 H         1 UNK         0.0000 
    160 H160        5.0370   -3.3476    7.8528 H         1 UNK         0.0000 
    161 H161        1.6018    4.2311    2.8505 H         1 UNK         0.0000 
    162 H162        3.4325    4.8268    1.7624 H         1 UNK         0.0000 
    163 H163        4.4864    5.5460    2.9578 H         1 UNK         0.0000 
    164 H164        5.5838    3.0296    2.5763 H         1 UNK         0.0000 
    165 H165        8.4396    5.3938    0.0645 H         1 UNK         0.0000 
    166 H166        9.4544    4.1298    0.7147 H         1 UNK         0.0000 
    167 H167        8.4934    5.0990    1.7927 H         1 UNK         0.0000 
    168 H168        8.9698    2.7005   -1.0679 H         1 UNK         0.0000 
    169 H169        9.2800    1.8496    0.4455 H         1 UNK         0.0000 
    170 H170        4.3404   -0.9209   -6.2639 H         1 UNK         0.0000 
    171 H171        5.8326   -0.6384   -7.1372 H         1 UNK         0.0000 
    172 H172        5.1059    1.2445   -7.4329 H         1 UNK         0.0000 
    173 H173        1.7833   -2.6014   -6.8338 H         1 UNK         0.0000 
    174 H174       -0.5639   -3.2181   -0.3395 H         1 UNK         0.0000 
    175 H175       -0.4225   -1.6847    0.4379 H         1 UNK         0.0000 
    176 H176       -1.6038   -0.3880   -0.9156 H         1 UNK         0.0000 
    177 H177       -2.8898   -1.8181    1.0105 H         1 UNK         0.0000 
    178 H178       -3.0502   -2.9913   -0.2610 H         1 UNK         0.0000 
@<TRIPOS>BOND
     1    1    5 nc   
     2    1    7 nc   
     3    1   40 nc   
     4    1   42 nc   
     5    1   76 nc   
     6    1   78 nc   
     7    2   94 1    
     8    2   92 1    
     9    2    3 1    
    10    2   93 1    
    11    3   96 1    
    12    3    4 1    
    13    3   95 1    
    14    4    5 2    
    15    4    6 am   BACKBONE|DICT|INTERRES
    16    6    7 1    
    17    6    8 1    
    18    8   97 1    
    19    8    9 1    
    20    8   98 1    
    21    9   99 1    
    22    9   10 1    
    23    9  100 1    
    24   10  102 1    
    25   10   11 1    
    26   10  101 1    
    27   11   12 1    
    28   11   91 1    
    29   11   13 1    
    30   13   14 am   BACKBONE|DICT|INTERRES
    31   13  103 1    
    32   14   15 2    
    33   14   16 1    
    34   16   17 1    
    35   16   18 1    
    36   16   20 1    
    37   18  104 1    
    38   18   19 1    
    39   18  105 1    
    40   19  106 1    
    41   20  107 1    
    42   20   21 1    
    43   21   22 1    
    44   21  170 1    
    45   21  171 1    
    46   22  172 1    
    47   23   28 1    
    48   23   24 1    
    49   23   25 1    
    50   23  173 1    
    51   25   26 1    
    52   25   27 1    
    53   25  108 1    
    54   26  109 1    
    55   26  110 1    
    56   26  111 1    
    57   27  114 1    
    58   27  112 1    
    59   27  113 1    
    60   28   29 am   BACKBONE|DICT|INTERRES
    61   28  115 1    
    62   29   31 1    
    63   29   30 2    
    64   31   32 1    
    65   31  116 1    
    66   31  117 1    
    67   32   33 am   BACKBONE|DICT|INTERRES
    68   32  118 1    
    69   33   35 1    
    70   33   34 2    
    71   35   45 1    
    72   35   36 1    
    73   35  176 1    
    74   36   37 1    
    75   36  177 1    
    76   36  178 1    
    77   37   38 1    
    78   37  174 1    
    79   37  175 1    
    80   38  119 1    
    81   38   39 1    
    82   38  120 1    
    83   39   41 am   BACKBONE|DICT|INTERRES
    84   39   40 1    
    85   41   42 2    
    86   41   43 1    
    87   43  121 1    
    88   43   44 1    
    89   43  122 1    
    90   44  123 1    
    91   44  125 1    
    92   44  124 1    
    93   45   46 am   BACKBONE|DICT|INTERRES
    94   45  126 1    
    95   46   48 1    
    96   46   47 2    
    97   48   49 1    
    98   48   62 1    
    99   48   50 1    
   100   50   51 am   BACKBONE|DICT|INTERRES
   101   50  127 1    
   102   51   52 2    
   103   51   53 1    
   104   53   54 1    
   105   53  128 1    
   106   53  129 1    
   107   54  130 1    
   108   54   55 2    
   109   55   56 1    
   110   55  131 1    
   111   56  132 1    
   112   56   57 1    
   113   56  133 1    
   114   57   58 1    
   115   57  134 1    
   116   57  135 1    
   117   58  137 1    
   118   58   59 1    
   119   58  136 1    
   120   59  138 1    
   121   59   60 1    
   122   59  139 1    
   123   60  141 1    
   124   60  140 1    
   125   60   61 1    
   126   61  144 1    
   127   61  142 1    
   128   61  143 1    
   129   62   63 1    
   130   62  145 1    
   131   62  146 1    
   132   63   64 1    
   133   64   65 2    
   134   64   66 1    
   135   66   67 1    
   136   66  148 1    
   137   66  147 1    
   138   67  149 1    
   139   67   68 am   BACKBONE|DICT|INTERRES
   140   68   70 1    
   141   68   69 2    
   142   70   71 1    
   143   70   72 1    
   144   70   81 1    
   145   72   73 1    
   146   72  150 1    
   147   72  151 1    
   148   73   74 1    
   149   73  153 1    
   150   73  152 1    
   151   74  155 1    
   152   74  154 1    
   153   74   75 1    
   154   75   77 am   BACKBONE|DICT|INTERRES
   155   75   76 1    
   156   77   79 1    
   157   77   78 2    
   158   79  156 1    
   159   79   80 1    
   160   79  157 1    
   161   80  160 1    
   162   80  158 1    
   163   80  159 1    
   164   81  161 1    
   165   81   82 am   BACKBONE|DICT|INTERRES
   166   82   83 2    
   167   82   84 1    
   168   84  163 1    
   169   84   85 1    
   170   84  162 1    
   171   85  164 1    
   172   85   86 am   BACKBONE|DICT|INTERRES
   173   86   87 2    
   174   86   88 1    
   175   88   89 1    
   176   88   90 2    
   177   89  167 1    
   178   89  165 1    
   179   89  166 1    
   180   90   91 1    
   181   91  169 1    
   182   91  168 1    
@<TRIPOS>SUBSTRUCTURE
     1 UNK         1 GROUP             0       ****    0 ROOT    
