@<TRIPOS>MOLECULE
256_c1
106   111    1
SMALL
USER_CHARGES


@<TRIPOS>ATOM
      1 Fe1        -0.7283   -3.7741    1.5739 Fe        1 UNK         0.0000 
      2 O2          0.3912   -3.6249    3.4414 O.co2     1 UNK         0.0000 
      3 N3          0.1846   -2.5640    4.2155 N.am      1 UNK         0.0000 
      4 C4          0.3311   -2.7259    5.6834 C.3       1 UNK         0.0000 
      5 C5          0.1641   -1.3846    6.4518 C.3       1 UNK         0.0000 
      6 C6         -0.9590   -0.5075    5.8743 C.3       1 UNK         0.0000 
      7 C7         -0.6720   -0.3055    4.3663 C.3       1 UNK         0.0000 
      8 H8          0.3804   -0.0222    4.2658 H         1 UNK         0.0000 
      9 C9         -0.7270   -1.7005    3.6828 C.2       1 UNK         0.0000 
     10 O10        -1.4007   -2.0864    2.7096 O.co2     1 UNK         0.0000 
     11 N11        -1.3091    0.7919    3.6101 N.am      1 UNK         0.0000 
     12 C12        -2.4155    1.4798    3.9458 C.2       1 UNK         0.0000 
     13 O13        -3.2106    1.1020    4.7985 O.2       1 UNK         0.0000 
     14 C14        -2.6171    2.8607    3.2666 C.3       1 UNK         0.0000 
     15 H15        -1.9560    3.5416    3.8036 H         1 UNK         0.0000 
     16 C16        -4.0421    3.4785    3.3605 C.3       1 UNK         0.0000 
     17 O17        -4.5031    3.8852    4.6359 O.3       1 UNK         0.0000 
     18 N18        -2.2370    2.8931    1.8428 N.am      1 UNK         0.0000 
     19 C19        -1.0571    3.3316    1.3813 C.2       1 UNK         0.0000 
     20 O20        -0.0859    3.5461    2.0968 O.2       1 UNK         0.0000 
     21 C21        -0.9424    3.6512   -0.1200 C.3       1 UNK         0.0000 
     22 H22        -1.8736    3.3506   -0.5899 H         1 UNK         0.0000 
     23 C23        -0.6964    5.1811   -0.3249 C.3       1 UNK         0.0000 
     24 C24        -1.8098    6.1470    0.1669 C.3       1 UNK         0.0000 
     25 C25        -1.4168    7.6385   -0.0030 C.3       1 UNK         0.0000 
     26 N26        -2.5312    8.5716    0.5036 N.4       1 UNK         0.0000 
     27 H27        -3.3964    8.4322   -0.0035 H         1 UNK         0.0000 
     28 H28        -2.2519    9.5373    0.3776 H         1 UNK         0.0000 
     29 H29        -2.7054    8.4329    1.4920 H         1 UNK         0.0000 
     30 N30         0.2152    2.9093   -0.6194 N.am      1 UNK         0.0000 
     31 C31         0.6070    2.2993   -1.7601 C.2       1 UNK         0.0000 
     32 O32         1.8039    2.0920   -1.8772 O.2       1 UNK         0.0000 
     33 C33        -0.2817    1.7985   -2.9602 C.3       1 UNK         0.0000 
     34 H34        -0.0197    2.4109   -3.8282 H         1 UNK         0.0000 
     35 N35        -1.7498    2.0164   -2.7088 N.4       1 UNK         0.0000 
     36 H36        -1.9267    1.8497   -1.7269 H         1 UNK         0.0000 
     37 H37        -2.1887    1.2491   -3.2039 H         1 UNK         0.0000 
     38 C38        -2.3351    3.3390   -3.2493 C.3       1 UNK         0.0000 
     39 C39        -0.0113    0.3070   -3.3305 C.3       1 UNK         0.0000 
     40 C40        -0.1400   -0.6633   -2.1301 C.3       1 UNK         0.0000 
     41 C41        -0.1271   -2.1827   -2.4562 C.3       1 UNK         0.0000 
     42 N42         0.0197   -2.9920   -1.2323 N.am      1 UNK         0.0000 
     43 O43        -0.8870   -2.6960   -0.2984 O.co2     1 UNK         0.0000 
     44 C44         1.0420   -3.8129   -0.8659 C.2       1 UNK         0.0000 
     45 O45         1.0153   -4.1252    0.3178 O.co2     1 UNK         0.0000 
     46 C46         2.0722   -4.5202   -1.7903 C.3       1 UNK         0.0000 
     47 H47         2.5420   -5.2801   -1.1663 H         1 UNK         0.0000 
     48 C48         3.2712   -3.6435   -2.2243 C.3       1 UNK         0.0000 
     49 O49         2.9572   -2.7150   -3.2388 O.3       1 UNK         0.0000 
     50 N50         1.4440   -5.1983   -2.9253 N.am      1 UNK         0.0000 
     51 C51         1.0375   -6.4759   -3.0268 C.2       1 UNK         0.0000 
     52 O52         0.4187   -6.8413   -4.0233 O.2       1 UNK         0.0000 
     53 C53         1.3739   -7.5396   -1.9249 C.3       1 UNK         0.0000 
     54 H54         2.4378   -7.4685   -1.6918 H         1 UNK         0.0000 
     55 N55         1.2303   -8.8842   -2.6048 N.4       1 UNK         0.0000 
     56 H56         1.7274   -8.8091   -3.4875 H         1 UNK         0.0000 
     57 H57         0.2476   -8.9615   -2.8460 H         1 UNK         0.0000 
     58 C58         1.7130  -10.1127   -1.8016 C.3       1 UNK         0.0000 
     59 C59         0.5372   -7.4286   -0.6108 C.3       1 UNK         0.0000 
     60 C60        -1.0119   -7.5152   -0.7563 C.3       1 UNK         0.0000 
     61 C61        -1.8209   -7.4117    0.5716 C.3       1 UNK         0.0000 
     62 N62        -1.8579   -6.0501    1.1403 N.am      1 UNK         0.0000 
     63 O63        -0.7524   -5.5565    1.6698 O.co2     1 UNK         0.0000 
     64 C64        -2.8990   -5.2182    1.0414 C.2       1 UNK         0.0000 
     65 O65        -2.5718   -4.0738    1.3898 O.co2     1 UNK         0.0000 
     66 H66        -0.3962   -3.4752    6.0164 H         1 UNK         0.0000 
     67 H67         1.3276   -3.1308    5.8773 H         1 UNK         0.0000 
     68 H68         1.1047   -0.8368    6.3837 H         1 UNK         0.0000 
     69 H69         0.0122   -1.5697    7.5170 H         1 UNK         0.0000 
     70 H70        -0.9825    0.4459    6.4075 H         1 UNK         0.0000 
     71 H71        -1.9325   -0.9756    6.0371 H         1 UNK         0.0000 
     72 H72        -0.7016    1.2391    2.9364 H         1 UNK         0.0000 
     73 H73        -4.0743    4.3773    2.7391 H         1 UNK         0.0000 
     74 H74        -4.7764    2.7809    2.9504 H         1 UNK         0.0000 
     75 H75        -3.7741    4.0760    5.2338 H         1 UNK         0.0000 
     76 H76        -2.9794    2.6369    1.2133 H         1 UNK         0.0000 
     77 H77         0.2298    5.4460    0.1948 H         1 UNK         0.0000 
     78 H78        -0.4858    5.3878   -1.3761 H         1 UNK         0.0000 
     79 H79        -2.7326    5.9430   -0.3812 H         1 UNK         0.0000 
     80 H80        -2.0318    5.9643    1.2218 H         1 UNK         0.0000 
     81 H81        -1.2610    7.9113   -1.0506 H         1 UNK         0.0000 
     82 H82        -0.5308    7.9115    0.5786 H         1 UNK         0.0000 
     83 H83         0.9786    2.9666    0.0503 H         1 UNK         0.0000 
     84 H84        -1.7550    4.1667   -2.8455 H         1 UNK         0.0000 
     85 H85        -2.2540    3.3125   -4.3377 H         1 UNK         0.0000 
     86 H86        -3.3798    3.4058   -2.9389 H         1 UNK         0.0000 
     87 H87         0.9948    0.2267   -3.7536 H         1 UNK         0.0000 
     88 H88        -0.6773   -0.0022   -4.1408 H         1 UNK         0.0000 
     89 H89        -1.0629   -0.4418   -1.5898 H         1 UNK         0.0000 
     90 H90         0.6786   -0.4690   -1.4324 H         1 UNK         0.0000 
     91 H91         0.6439   -2.3961   -3.1830 H         1 UNK         0.0000 
     92 H92        -1.0527   -2.4623   -2.9699 H         1 UNK         0.0000 
     93 H93         4.0739   -4.2868   -2.5951 H         1 UNK         0.0000 
     94 H94         3.7044   -3.1272   -1.3625 H         1 UNK         0.0000 
     95 H95         3.5558   -2.8502   -3.9809 H         1 UNK         0.0000 
     96 H96         1.2068   -4.5637   -3.6752 H         1 UNK         0.0000 
     97 H97         2.7430   -9.9397   -1.4904 H         1 UNK         0.0000 
     98 H98         1.6508  -10.9838   -2.4543 H         1 UNK         0.0000 
     99 H99         1.0583  -10.2355   -0.9400 H         1 UNK         0.0000 
    100 H100        0.8638   -8.1996    0.0930 H         1 UNK         0.0000 
    101 H101        0.8103   -6.5091   -0.1100 H         1 UNK         0.0000 
    102 H102       -1.2677   -8.4874   -1.1877 H         1 UNK         0.0000 
    103 H103       -1.3839   -6.7692   -1.4677 H         1 UNK         0.0000 
    104 H104       -2.8368   -7.7786    0.4033 H         1 UNK         0.0000 
    105 H105       -1.3954   -8.0855    1.3209 H         1 UNK         0.0000 
    106 H106       -3.8439   -5.6121    0.6317 H         1 UNK         0.0000 
@<TRIPOS>BOND
     1    1    2 nc   
     2    1   10 nc   
     3    1   43 nc   
     4    1   45 nc   
     5    1   63 nc   
     6    1   65 nc   
     7    2    3 1    
     8    3    4 1    
     9    3    9 am   BACKBONE|DICT|INTERRES
    10    4   67 1    
    11    4   66 1    
    12    4    5 1    
    13    5   69 1    
    14    5    6 1    
    15    5   68 1    
    16    6   71 1    
    17    6   70 1    
    18    6    7 1    
    19    7    8 1    
    20    7    9 1    
    21    7   11 1    
    22    9   10 2    
    23   11   12 am   BACKBONE|DICT|INTERRES
    24   11   72 1    
    25   12   13 2    
    26   12   14 1    
    27   14   16 1    
    28   14   15 1    
    29   14   18 1    
    30   16   17 1    
    31   16   73 1    
    32   16   74 1    
    33   17   75 1    
    34   18   19 am   BACKBONE|DICT|INTERRES
    35   18   76 1    
    36   19   20 2    
    37   19   21 1    
    38   21   22 1    
    39   21   23 1    
    40   21   30 1    
    41   23   24 1    
    42   23   77 1    
    43   23   78 1    
    44   24   80 1    
    45   24   25 1    
    46   24   79 1    
    47   25   26 1    
    48   25   82 1    
    49   25   81 1    
    50   26   29 1    
    51   26   27 1    
    52   26   28 1    
    53   30   83 1    
    54   30   31 am   BACKBONE|DICT|INTERRES
    55   31   32 2    
    56   31   33 1    
    57   33   34 1    
    58   33   35 1    
    59   33   39 1    
    60   35   36 1    
    61   35   37 1    
    62   35   38 1    
    63   38   86 1    
    64   38   84 1    
    65   38   85 1    
    66   39   40 1    
    67   39   87 1    
    68   39   88 1    
    69   40   89 1    
    70   40   90 1    
    71   40   41 1    
    72   41   42 1    
    73   41   91 1    
    74   41   92 1    
    75   42   44 am   BACKBONE|DICT|INTERRES
    76   42   43 1    
    77   44   45 2    
    78   44   46 1    
    79   46   47 1    
    80   46   48 1    
    81   46   50 1    
    82   48   94 1    
    83   48   49 1    
    84   48   93 1    
    85   49   95 1    
    86   50   51 am   BACKBONE|DICT|INTERRES
    87   50   96 1    
    88   51   53 1    
    89   51   52 2    
    90   53   54 1    
    91   53   59 1    
    92   53   55 1    
    93   55   58 1    
    94   55   56 1    
    95   55   57 1    
    96   58   97 1    
    97   58   99 1    
    98   58   98 1    
    99   59  101 1    
   100   59  100 1    
   101   59   60 1    
   102   60   61 1    
   103   60  102 1    
   104   60  103 1    
   105   61   62 1    
   106   61  105 1    
   107   61  104 1    
   108   62   63 1    
   109   62   64 am   BACKBONE|DICT|INTERRES
   110   64   65 2    
   111   64  106 1    
@<TRIPOS>SUBSTRUCTURE
     1 UNK         1 GROUP             0       ****    0 ROOT    
