@<TRIPOS>MOLECULE
104_c1
115   120    1
SMALL
USER_CHARGES


@<TRIPOS>ATOM
      1 Fe1         0.4100    2.5823    0.1833 Fe        1 UNK         0.0000 
      2 O2          1.4490    1.6026    1.8731 O.co2     1 UNK         0.0000 
      3 N3          0.7284    2.1088    2.8758 N.am      1 UNK         0.0000 
      4 C4          1.5233    2.8225    3.9075 C.3       1 UNK         0.0000 
      5 C5          2.9951    3.1805    3.5130 C.3       1 UNK         0.0000 
      6 C6          3.7526    4.1549    4.4385 C.3       1 UNK         0.0000 
      7 C7          3.2543    5.6169    4.4406 C.3       1 UNK         0.0000 
      8 N8          3.1208    6.2137    3.0996 N.am      1 UNK         0.0000 
      9 C9          1.9970    6.7389    2.5849 C.2       1 UNK         0.0000 
     10 O10         0.9210    6.6982    3.1673 O.2       1 UNK         0.0000 
     11 C11         2.1015    7.4307    1.2119 C.3       1 UNK         0.0000 
     12 C12         2.0032    6.5508   -0.0779 C.3       1 UNK         0.0000 
     13 C13         1.0796    5.3073    0.0054 C.2       1 UNK         0.0000 
     14 O14         1.4855    4.2995    0.6009 O.co2     1 UNK         0.0000 
     15 N15        -0.1587    5.2434   -0.5648 N.am      1 UNK         0.0000 
     16 O16        -1.0006    4.2230   -0.3594 O.co2     1 UNK         0.0000 
     17 C17        -0.6297    6.1683   -1.6326 C.3       1 UNK         0.0000 
     18 C18        -2.0767    6.7123   -1.4957 C.3       1 UNK         0.0000 
     19 C19        -2.7452    7.0835   -2.8443 C.3       1 UNK         0.0000 
     20 C20        -3.3469    5.8712   -3.6102 C.3       1 UNK         0.0000 
     21 C21        -2.7534    5.5571   -5.0057 C.3       1 UNK         0.0000 
     22 N22        -1.3407    5.1823   -5.0251 N.am      1 UNK         0.0000 
     23 C23        -0.7704    4.0043   -4.7543 C.2       1 UNK         0.0000 
     24 O24         0.4273    3.8949   -4.9691 O.2       1 UNK         0.0000 
     25 C25        -1.5877    2.8256   -4.1937 C.3       1 UNK         0.0000 
     26 C26        -0.7783    1.5326   -3.8693 C.3       1 UNK         0.0000 
     27 C27         0.0293    1.5899   -2.5527 C.2       1 UNK         0.0000 
     28 O28        -0.5859    1.6697   -1.4799 O.co2     1 UNK         0.0000 
     29 N29         1.3935    1.5962   -2.5094 N.am      1 UNK         0.0000 
     30 O30         2.0917    1.7636   -1.3770 O.co2     1 UNK         0.0000 
     31 C31         2.2392    1.3586   -3.6973 C.3       1 UNK         0.0000 
     32 C32         2.2417   -0.1075   -4.1811 C.3       1 UNK         0.0000 
     33 C33         2.7248   -1.1706   -3.1758 C.3       1 UNK         0.0000 
     34 C34         2.6862   -2.5737   -3.8247 C.3       1 UNK         0.0000 
     35 C35         3.6059   -3.6335   -3.1950 C.3       1 UNK         0.0000 
     36 N36         3.0664   -4.2732   -1.9942 N.am      1 UNK         0.0000 
     37 C37         2.6918   -5.5604   -1.9278 C.2       1 UNK         0.0000 
     38 O38         2.6479   -6.2910   -2.9131 O.2       1 UNK         0.0000 
     39 C39         2.4292   -6.1389   -0.5319 C.3       1 UNK         0.0000 
     40 C40         1.2546   -7.1571   -0.4352 C.3       1 UNK         0.0000 
     41 C41        -0.0954   -6.5277   -0.0158 C.2       1 UNK         0.0000 
     42 O42        -0.3801   -5.4117   -0.4463 O.2       1 UNK         0.0000 
     43 N43        -0.9498   -7.2084    0.8040 N.am      1 UNK         0.0000 
     44 O44        -0.5362   -8.4578    1.3113 O.3       1 UNK         0.0000 
     45 C45        -2.2233   -6.7148    1.3476 C.3       1 UNK         0.0000 
     46 C46        -2.2176   -6.4983    2.8810 C.3       1 UNK         0.0000 
     47 C47        -1.3653   -5.3164    3.3931 C.3       1 UNK         0.0000 
     48 C48        -2.0342   -3.9358    3.2169 C.3       1 UNK         0.0000 
     49 C49        -1.2188   -2.7930    3.8495 C.3       1 UNK         0.0000 
     50 N50        -1.9219   -1.5068    3.8311 N.am      1 UNK         0.0000 
     51 C51        -1.5211   -0.4279    4.5238 C.2       1 UNK         0.0000 
     52 O52        -0.5502   -0.4478    5.2739 O.2       1 UNK         0.0000 
     53 C53        -2.3196    0.8736    4.3305 C.3       1 UNK         0.0000 
     54 C54        -1.4428    2.1537    4.1741 C.3       1 UNK         0.0000 
     55 C55        -0.6332    2.0887    2.8724 C.2       1 UNK         0.0000 
     56 O56        -1.2270    1.9223    1.7967 O.co2     1 UNK         0.0000 
     57 H57         1.5492    2.2173    4.8161 H         1 UNK         0.0000 
     58 H58         1.0069    3.7443    4.1981 H         1 UNK         0.0000 
     59 H59         3.0334    3.5729    2.4984 H         1 UNK         0.0000 
     60 H60         3.5574    2.2455    3.4837 H         1 UNK         0.0000 
     61 H61         4.8052    4.1484    4.1507 H         1 UNK         0.0000 
     62 H62         3.7392    3.7706    5.4584 H         1 UNK         0.0000 
     63 H63         2.3023    5.6546    4.9751 H         1 UNK         0.0000 
     64 H64         3.9475    6.2422    5.0096 H         1 UNK         0.0000 
     65 H65         3.9400    6.2149    2.5165 H         1 UNK         0.0000 
     66 H66         1.3002    8.1711    1.1691 H         1 UNK         0.0000 
     67 H67         2.9973    8.0507    1.1729 H         1 UNK         0.0000 
     68 H68         3.0010    6.1661   -0.2886 H         1 UNK         0.0000 
     69 H69         1.8535    7.1799   -0.9541 H         1 UNK         0.0000 
     70 H70         0.0164    7.0071   -1.8901 H         1 UNK         0.0000 
     71 H71        -0.5854    5.5639   -2.5347 H         1 UNK         0.0000 
     72 H72        -2.0526    7.5889   -0.8508 H         1 UNK         0.0000 
     73 H73        -2.7162    6.0086   -0.9705 H         1 UNK         0.0000 
     74 H74        -3.5610    7.7788   -2.6317 H         1 UNK         0.0000 
     75 H75        -2.0496    7.6422   -3.4713 H         1 UNK         0.0000 
     76 H76        -4.4129    6.0613   -3.7594 H         1 UNK         0.0000 
     77 H77        -3.3312    4.9760   -2.9900 H         1 UNK         0.0000 
     78 H78        -2.8098    6.4650   -5.6114 H         1 UNK         0.0000 
     79 H79        -3.3627    4.8177   -5.5317 H         1 UNK         0.0000 
     80 H80        -0.6836    5.8632   -5.3719 H         1 UNK         0.0000 
     81 H81        -2.2907    2.5751   -4.9840 H         1 UNK         0.0000 
     82 H82        -2.2100    3.1105   -3.3523 H         1 UNK         0.0000 
     83 H83        -0.2382    1.1797   -4.7452 H         1 UNK         0.0000 
     84 H84        -1.5028    0.7363   -3.6980 H         1 UNK         0.0000 
     85 H85         3.2772    1.6258   -3.4683 H         1 UNK         0.0000 
     86 H86         1.9771    2.0288   -4.5211 H         1 UNK         0.0000 
     87 H87         2.8836   -0.1465   -5.0574 H         1 UNK         0.0000 
     88 H88         1.2532   -0.3873   -4.5333 H         1 UNK         0.0000 
     89 H89         3.7376   -0.9247   -2.8495 H         1 UNK         0.0000 
     90 H90         2.1142   -1.1632   -2.2675 H         1 UNK         0.0000 
     91 H91         2.9961   -2.4774   -4.8675 H         1 UNK         0.0000 
     92 H92         1.6598   -2.9455   -3.8699 H         1 UNK         0.0000 
     93 H93         3.8755   -4.3635   -3.9644 H         1 UNK         0.0000 
     94 H94         4.5591   -3.1770   -2.9238 H         1 UNK         0.0000 
     95 H95         3.0069   -3.7171   -1.1573 H         1 UNK         0.0000 
     96 H96         3.3550   -6.6684   -0.3032 H         1 UNK         0.0000 
     97 H97         2.3334   -5.3460    0.2107 H         1 UNK         0.0000 
     98 H98         1.5512   -7.9046    0.2973 H         1 UNK         0.0000 
     99 H99         1.0931   -7.6847   -1.3768 H         1 UNK         0.0000 
    100 H100       -1.1354   -9.0861    0.8982 H         1 UNK         0.0000 
    101 H101       -2.5150   -5.7851    0.8560 H         1 UNK         0.0000 
    102 H102       -3.0035   -7.4304    1.0839 H         1 UNK         0.0000 
    103 H103       -1.8950   -7.4170    3.3748 H         1 UNK         0.0000 
    104 H104       -3.2456   -6.3486    3.2137 H         1 UNK         0.0000 
    105 H105       -0.3827   -5.3270    2.9175 H         1 UNK         0.0000 
    106 H106       -1.1737   -5.4765    4.4564 H         1 UNK         0.0000 
    107 H107       -2.1820   -3.7348    2.1550 H         1 UNK         0.0000 
    108 H108       -3.0260   -3.9572    3.6713 H         1 UNK         0.0000 
    109 H109       -0.2518   -2.7034    3.3481 H         1 UNK         0.0000 
    110 H110       -0.9700   -3.0641    4.8790 H         1 UNK         0.0000 
    111 H111       -2.7289   -1.4263    3.2357 H         1 UNK         0.0000 
    112 H112       -3.0447    0.8032    3.5226 H         1 UNK         0.0000 
    113 H113       -2.9322    0.9825    5.2195 H         1 UNK         0.0000 
    114 H114       -2.0912    3.0290    4.1018 H         1 UNK         0.0000 
    115 H115       -0.8539    2.3447    5.0731 H         1 UNK         0.0000 
@<TRIPOS>BOND
     1    1    2 nc   
     2    1   14 nc   
     3    1   16 nc   
     4    1   28 nc   
     5    1   30 nc   
     6    1   56 nc   
     7    2    3 1    
     8    3    4 1    
     9    3   55 am   BACKBONE|DICT|INTERRES
    10    4   58 1    
    11    4   57 1    
    12    4    5 1    
    13    5    6 1    
    14    5   59 1    
    15    5   60 1    
    16    6   62 1    
    17    6    7 1    
    18    6   61 1    
    19    7   63 1    
    20    7   64 1    
    21    7    8 1    
    22    8    9 am   BACKBONE|DICT|INTERRES
    23    8   65 1    
    24    9   10 2    
    25    9   11 1    
    26   11   12 1    
    27   11   66 1    
    28   11   67 1    
    29   12   13 1    
    30   12   68 1    
    31   12   69 1    
    32   13   14 2    
    33   13   15 am   BACKBONE|DICT|INTERRES
    34   15   16 1    
    35   15   17 1    
    36   17   18 1    
    37   17   70 1    
    38   17   71 1    
    39   18   73 1    
    40   18   72 1    
    41   18   19 1    
    42   19   74 1    
    43   19   20 1    
    44   19   75 1    
    45   20   77 1    
    46   20   21 1    
    47   20   76 1    
    48   21   22 1    
    49   21   78 1    
    50   21   79 1    
    51   22   23 am   BACKBONE|DICT|INTERRES
    52   22   80 1    
    53   23   25 1    
    54   23   24 2    
    55   25   26 1    
    56   25   82 1    
    57   25   81 1    
    58   26   84 1    
    59   26   27 1    
    60   26   83 1    
    61   27   29 am   BACKBONE|DICT|INTERRES
    62   27   28 2    
    63   29   30 1    
    64   29   31 1    
    65   31   85 1    
    66   31   32 1    
    67   31   86 1    
    68   32   33 1    
    69   32   87 1    
    70   32   88 1    
    71   33   89 1    
    72   33   90 1    
    73   33   34 1    
    74   34   35 1    
    75   34   91 1    
    76   34   92 1    
    77   35   94 1    
    78   35   36 1    
    79   35   93 1    
    80   36   37 am   BACKBONE|DICT|INTERRES
    81   36   95 1    
    82   37   39 1    
    83   37   38 2    
    84   39   96 1    
    85   39   97 1    
    86   39   40 1    
    87   40   41 1    
    88   40   98 1    
    89   40   99 1    
    90   41   43 am   BACKBONE|DICT|INTERRES
    91   41   42 2    
    92   43   45 1    
    93   43   44 1    
    94   44  100 1    
    95   45   46 1    
    96   45  101 1    
    97   45  102 1    
    98   46  104 1    
    99   46  103 1    
   100   46   47 1    
   101   47  106 1    
   102   47   48 1    
   103   47  105 1    
   104   48  108 1    
   105   48   49 1    
   106   48  107 1    
   107   49  110 1    
   108   49   50 1    
   109   49  109 1    
   110   50   51 am   BACKBONE|DICT|INTERRES
   111   50  111 1    
   112   51   52 2    
   113   51   53 1    
   114   53  113 1    
   115   53   54 1    
   116   53  112 1    
   117   54  115 1    
   118   54   55 1    
   119   54  114 1    
   120   55   56 2    
@<TRIPOS>SUBSTRUCTURE
     1 UNK         1 GROUP             0       ****    0 ROOT    
