@<TRIPOS>MOLECULE
191_B_c1
97   103    1
SMALL
USER_CHARGES


@<TRIPOS>ATOM
      1 Fe1        -0.2912   -0.4512   -0.7966 Fe        1 UNK         0.0000 
      2 C2          4.7952   -4.1957    2.7667 C.ar      1 UNK         0.0000 
      3 C3          5.6514   -5.0210    3.4918 C.ar      1 UNK         0.0000 
      4 C4          5.2165   -6.2850    3.8770 C.ar      1 UNK         0.0000 
      5 C5          3.9274   -6.7221    3.5586 C.ar      1 UNK         0.0000 
      6 C6          3.0756   -5.8938    2.8324 C.ar      1 UNK         0.0000 
      7 C7          3.5142   -4.6298    2.4203 C.ar      1 UNK         0.0000 
      8 C8          2.6897   -3.7245    1.6041 C.2       1 UNK         0.0000 
      9 C9          1.4806   -3.9630    1.0510 C.2       1 UNK         0.0000 
     10 C10         0.8319   -2.9488    0.2432 C.2       1 UNK         0.0000 
     11 O11         1.2759   -1.8041    0.0726 O.co2     1 UNK         0.0000 
     12 N12        -0.3026   -3.2052   -0.4478 N.am      1 UNK         0.0000 
     13 O13        -0.6642   -2.3384   -1.3792 O.co2     1 UNK         0.0000 
     14 C14        -1.3529   -4.2068   -0.1331 C.3       1 UNK         0.0000 
     15 C15        -2.7508   -3.5902    0.1718 C.3       1 UNK         0.0000 
     16 C16        -2.7331   -2.6381    1.3833 C.3       1 UNK         0.0000 
     17 C17        -4.0567   -1.8925    1.6737 C.3       1 UNK         0.0000 
     18 C18        -4.5808   -0.7232    0.7573 C.3       1 UNK         0.0000 
     19 H19        -5.4524   -1.1377    0.2515 H         1 UNK         0.0000 
     20 C20        -3.7810   -0.2055   -0.5110 C.2       1 UNK         0.0000 
     21 O21        -4.5176    0.3183   -1.3808 O.co2     1 UNK         0.0000 
     22 O22        -2.5263   -0.2694   -0.5087 O.co2     1 UNK         0.0000 
     23 N23        -5.1231    0.4260    1.5238 N.am      1 UNK         0.0000 
     24 C24        -4.4702    1.3754    2.2234 C.2       1 UNK         0.0000 
     25 O25        -5.0843    2.3363    2.6765 O.2       1 UNK         0.0000 
     26 C26        -2.9664    1.2253    2.4942 C.3       1 UNK         0.0000 
     27 C27        -1.9714    2.3143    1.9471 C.3       1 UNK         0.0000 
     28 O28        -2.3340    2.6835    0.6002 O.3       1 UNK         0.0000 
     29 C29        -0.5753    1.5601    1.9589 C.2       1 UNK         0.0000 
     30 O30        -0.4051    0.6526    1.0911 O.co2     1 UNK         0.0000 
     31 O31         0.2191    1.7204    2.9099 O.co2     1 UNK         0.0000 
     32 C32        -1.9951    3.6119    2.8323 C.3       1 UNK         0.0000 
     33 C33        -1.0153    4.7450    2.4634 C.2       1 UNK         0.0000 
     34 O34        -0.2052    5.1620    3.2902 O.2       1 UNK         0.0000 
     35 N35        -1.1502    5.2742    1.2337 N.am      1 UNK         0.0000 
     36 C36        -0.2281    6.1480    0.4655 C.3       1 UNK         0.0000 
     37 H37        -0.8686    6.6750   -0.2424 H         1 UNK         0.0000 
     38 C38         0.5168    7.2227    1.2854 C.2       1 UNK         0.0000 
     39 O39         1.6484    7.0781    1.7570 O.2       1 UNK         0.0000 
     40 O40        -0.1281    8.4062    1.2863 O.3       1 UNK         0.0000 
     41 C41         0.4615    9.5347    1.9155 C.3       1 UNK         0.0000 
     42 C42         0.7495    5.3102   -0.4045 C.3       1 UNK         0.0000 
     43 C43         0.0508    4.5450   -1.5633 C.3       1 UNK         0.0000 
     44 C44         1.0152    4.0088   -2.6473 C.3       1 UNK         0.0000 
     45 C45         1.7184    2.6621   -2.3362 C.3       1 UNK         0.0000 
     46 N46         0.8663    1.4629   -2.2674 N.am      1 UNK         0.0000 
     47 O47         0.9023    0.7628   -1.1460 O.co2     1 UNK         0.0000 
     48 C48        -0.0783    0.9950   -3.1302 C.2       1 UNK         0.0000 
     49 O49        -0.7465    0.1162   -2.5791 O.co2     1 UNK         0.0000 
     50 C50        -0.1530    1.3772   -4.5150 C.2       1 UNK         0.0000 
     51 C51        -1.0009    0.7157   -5.3475 C.2       1 UNK         0.0000 
     52 C52        -1.2127    0.9217   -6.7932 C.ar      1 UNK         0.0000 
     53 C53        -2.1038    0.0635   -7.4602 C.ar      1 UNK         0.0000 
     54 C54        -2.3457    0.2095   -8.8212 C.ar      1 UNK         0.0000 
     55 C55        -1.6951    1.2201   -9.5293 C.ar      1 UNK         0.0000 
     56 C56        -0.8092    2.0800   -8.8821 C.ar      1 UNK         0.0000 
     57 C57        -0.5673    1.9292   -7.5175 C.ar      1 UNK         0.0000 
     58 H58         5.1424   -3.2176    2.4610 H         1 UNK         0.0000 
     59 H59         6.6441   -4.6770    3.7439 H         1 UNK         0.0000 
     60 H60         5.8821   -6.9283    4.4343 H         1 UNK         0.0000 
     61 H61         3.6011   -7.7020    3.8740 H         1 UNK         0.0000 
     62 H62         2.0844   -6.2404    2.5814 H         1 UNK         0.0000 
     63 H63        -1.0785   -4.8259    0.7181 H         1 UNK         0.0000 
     64 H64        -1.4369   -4.8939   -0.9779 H         1 UNK         0.0000 
     65 H65        -3.4674   -4.3937    0.3558 H         1 UNK         0.0000 
     66 H66        -3.1246   -3.0715   -0.7127 H         1 UNK         0.0000 
     67 H67        -1.9220   -1.9111    1.2954 H         1 UNK         0.0000 
     68 H68        -2.4806   -3.2204    2.2752 H         1 UNK         0.0000 
     69 H69        -4.8564   -2.6330    1.7559 H         1 UNK         0.0000 
     70 H70        -3.9661   -1.5155    2.6921 H         1 UNK         0.0000 
     71 H71        -6.0938    0.6131    1.3307 H         1 UNK         0.0000 
     72 H72        -2.6793    0.2408    2.1364 H         1 UNK         0.0000 
     73 H73        -2.8402    1.1347    3.5730 H         1 UNK         0.0000 
     74 H74        -3.2127    2.3396    0.4005 H         1 UNK         0.0000 
     75 H75        -1.7829    3.3484    3.8647 H         1 UNK         0.0000 
     76 H76        -2.9980    4.0399    2.8461 H         1 UNK         0.0000 
     77 H77        -1.7769    4.7184    0.6558 H         1 UNK         0.0000 
     78 H78         0.3019    9.5071    2.9933 H         1 UNK         0.0000 
     79 H79         0.0327   10.4555    1.5197 H         1 UNK         0.0000 
     80 H80         1.5374    9.5811    1.7440 H         1 UNK         0.0000 
     81 H81         1.2911    4.5929    0.2228 H         1 UNK         0.0000 
     82 H82         1.5098    5.9662   -0.8403 H         1 UNK         0.0000 
     83 H83        -0.6482    5.2213   -2.0602 H         1 UNK         0.0000 
     84 H84        -0.5645    3.7303   -1.1666 H         1 UNK         0.0000 
     85 H85         0.4897    3.9484   -3.5987 H         1 UNK         0.0000 
     86 H86         1.7917    4.7569   -2.8050 H         1 UNK         0.0000 
     87 H87         2.2256    2.7948   -1.3720 H         1 UNK         0.0000 
     88 H88         2.5273    2.4708   -3.0421 H         1 UNK         0.0000 
     89 H89        -2.6236   -0.7221   -6.9237 H         1 UNK         0.0000 
     90 H90        -3.0392   -0.4523   -9.3274 H         1 UNK         0.0000 
     91 H91        -1.8799    1.3346  -10.5872 H         1 UNK         0.0000 
     92 H92        -0.3140    2.8669   -9.4338 H         1 UNK         0.0000 
     93 H93         0.1153    2.6036   -7.0258 H         1 UNK         0.0000 
     94 H94        -1.6136   -0.0812   -4.9375 H         1 UNK         0.0000 
     95 H95         0.4955    2.1723   -4.8345 H         1 UNK         0.0000 
     96 H96         0.9591   -4.8962    1.1732 H         1 UNK         0.0000 
     97 H97         3.1559   -2.7572    1.4543 H         1 UNK         0.0000 
@<TRIPOS>BOND
     1    1   11 nc   
     2    1   13 nc   
     3    1   22 nc   
     4    1   30 nc   
     5    1   47 nc   
     6    1   49 nc   
     7    2    3 ar   
     8    2    7 ar   
     9    2   58 1    
    10    3   59 1    
    11    3    4 ar   
    12    4   60 1    
    13    4    5 ar   
    14    5   61 1    
    15    5    6 ar   
    16    6    7 ar   
    17    6   62 1    
    18    7    8 1    
    19    8    9 2    
    20    8   97 1    
    21    9   10 1    
    22    9   96 1    
    23   10   11 2    
    24   10   12 am   BACKBONE|DICT|INTERRES
    25   12   14 1    
    26   12   13 1    
    27   14   15 1    
    28   14   63 1    
    29   14   64 1    
    30   15   65 1    
    31   15   16 1    
    32   15   66 1    
    33   16   17 1    
    34   16   68 1    
    35   16   67 1    
    36   17   69 1    
    37   17   70 1    
    38   17   18 1    
    39   18   19 1    
    40   18   23 1    
    41   18   20 1    
    42   20   21 2    
    43   20   22 1    
    44   23   24 am   BACKBONE|DICT|INTERRES
    45   23   71 1    
    46   24   26 1    
    47   24   25 2    
    48   26   73 1    
    49   26   27 1    
    50   26   72 1    
    51   27   28 1    
    52   27   32 1    
    53   27   29 1    
    54   28   74 1    
    55   29   31 2    
    56   29   30 1    
    57   32   76 1    
    58   32   75 1    
    59   32   33 1    
    60   33   34 2    
    61   33   35 am   BACKBONE|DICT|INTERRES
    62   35   36 1    
    63   35   77 1    
    64   36   37 1    
    65   36   38 1    
    66   36   42 1    
    67   38   39 2    
    68   38   40 1    
    69   40   41 1    
    70   41   78 1    
    71   41   79 1    
    72   41   80 1    
    73   42   81 1    
    74   42   43 1    
    75   42   82 1    
    76   43   84 1    
    77   43   44 1    
    78   43   83 1    
    79   44   45 1    
    80   44   85 1    
    81   44   86 1    
    82   45   87 1    
    83   45   46 1    
    84   45   88 1    
    85   46   47 1    
    86   46   48 am   BACKBONE|DICT|INTERRES
    87   48   49 2    
    88   48   50 1    
    89   50   51 2    
    90   50   95 1    
    91   51   52 1    
    92   51   94 1    
    93   52   53 ar   
    94   52   57 ar   
    95   53   89 1    
    96   53   54 ar   
    97   54   55 ar   
    98   54   90 1    
    99   55   56 ar   
   100   55   91 1    
   101   56   57 ar   
   102   56   92 1    
   103   57   93 1    
@<TRIPOS>SUBSTRUCTURE
     1 UNK         1 GROUP             0       ****    0 ROOT    
