@<TRIPOS>MOLECULE
033_c1
94   99    1
SMALL
USER_CHARGES


@<TRIPOS>ATOM
      1 Fe1         0.0000    0.0000    0.0000 Fe        1 UNK         0.0000 
      2 C2          3.9632    3.3622    0.0583 C.ar      1 UNK         0.0000 
      3 C3          2.9152    4.2754    0.1236 C.ar      1 UNK         0.0000 
      4 C4          1.6009    3.8344    0.0876 C.ar      1 UNK         0.0000 
      5 C5          1.3109    2.4686    0.0154 C.ar      1 UNK         0.0000 
      6 O6          0.0000    2.0800    0.0000 O.co2     1 UNK         0.0000 
      7 C7          2.3775    1.5075   -0.0276 C.ar      1 UNK         0.0000 
      8 O8          2.0734    0.1651    0.0000 O.co2     1 UNK         0.0000 
      9 C9          3.7258    1.9755   -0.0436 C.ar      1 UNK         0.0000 
     10 C10         4.9273    1.0943   -0.2009 C.2       1 UNK         0.0000 
     11 O11         6.0000    1.4831    0.2419 O.2       1 UNK         0.0000 
     12 N12         4.8768   -0.0655   -0.9204 N.am      1 UNK         0.0000 
     13 C13         6.0316   -0.9119   -1.1587 C.3       1 UNK         0.0000 
     14 C14         6.3150   -0.9586   -2.6625 C.3       1 UNK         0.0000 
     15 C15         7.5250   -1.8460   -2.9785 C.3       1 UNK         0.0000 
     16 C16         7.8001   -1.9671   -4.4878 C.3       1 UNK         0.0000 
     17 N17         8.1477   -0.6839   -5.1025 N.4       1 UNK         0.0000 
     18 H18         8.9667   -0.2574   -4.6118 H         1 UNK         0.0000 
     19 H19         7.3350   -0.0279   -5.0807 H         1 UNK         0.0000 
     20 H20         8.4017   -0.8465   -6.1035 H         1 UNK         0.0000 
     21 H21         4.9728    3.7536    0.0573 H         1 UNK         0.0000 
     22 H22         3.1244    5.3356    0.1865 H         1 UNK         0.0000 
     23 H23         0.7979    4.5604    0.1279 H         1 UNK         0.0000 
     24 H24         4.0075   -0.3451   -1.3932 H         1 UNK         0.0000 
     25 H25         6.9342   -0.5369   -0.6293 H         1 UNK         0.0000 
     26 H26         5.8127   -1.9340   -0.7811 H         1 UNK         0.0000 
     27 H27         6.5034    0.0795   -3.0087 H         1 UNK         0.0000 
     28 H28         5.4198   -1.3574   -3.1890 H         1 UNK         0.0000 
     29 H29         8.4284   -1.4464   -2.4679 H         1 UNK         0.0000 
     30 H30         7.3266   -2.8677   -2.5871 H         1 UNK         0.0000 
     31 H31         8.6506   -2.6707   -4.6255 H         1 UNK         0.0000 
     32 H32         6.9123   -2.3998   -5.0004 H         1 UNK         0.0000 
     33 C33         0.2521   -3.2576    4.0005 C.ar      1 UNK         0.0000 
     34 C34         0.3172   -4.1877    2.9692 C.ar      1 UNK         0.0000 
     35 C35         0.2148   -3.7775    1.6488 C.ar      1 UNK         0.0000 
     36 C36         0.0760   -2.4232    1.3290 C.ar      1 UNK         0.0000 
     37 O37         0.0000   -2.0800    0.0000 O.co2     1 UNK         0.0000 
     38 C38         0.0355   -1.4367    2.3873 C.ar      1 UNK         0.0000 
     39 O39         0.0000   -0.0916    2.0780 O.co2     1 UNK         0.0000 
     40 C40         0.0855   -1.8821    3.7432 C.ar      1 UNK         0.0000 
     41 C41        -0.0632   -0.9866    4.9372 C.2       1 UNK         0.0000 
     42 O42         0.4408   -1.3357    5.9965 O.2       1 UNK         0.0000 
     43 N43        -0.8364    0.1390    4.8994 N.am      1 UNK         0.0000 
     44 C44        -1.0637    0.9957    6.0496 C.3       1 UNK         0.0000 
     45 C45        -2.5553    0.9866    6.3954 C.3       1 UNK         0.0000 
     46 C46        -2.8588    1.8842    7.6017 C.3       1 UNK         0.0000 
     47 C47        -4.3601    1.9525    7.9345 C.3       1 UNK         0.0000 
     48 N48        -4.9102    0.6537    8.3291 N.4       1 UNK         0.0000 
     49 H49        -4.3729    0.2635    9.1369 H         1 UNK         0.0000 
     50 H50        -4.8929   -0.0171    7.5288 H         1 UNK         0.0000 
     51 H51        -5.9067    0.7827    8.6181 H         1 UNK         0.0000 
     52 H52         0.3050   -3.6286    5.0170 H         1 UNK         0.0000 
     53 H53         0.4316   -5.2398    3.1970 H         1 UNK         0.0000 
     54 H54         0.2562   -4.5204    0.8617 H         1 UNK         0.0000 
     55 H55        -1.3564    0.3820    4.0459 H         1 UNK         0.0000 
     56 H56        -0.4822    0.6599    6.9356 H         1 UNK         0.0000 
     57 H57        -0.7391    2.0286    5.7986 H         1 UNK         0.0000 
     58 H58        -2.8509   -0.0606    6.6163 H         1 UNK         0.0000 
     59 H59        -3.1336    1.3470    5.5162 H         1 UNK         0.0000 
     60 H60        -2.2977    1.5227    8.4911 H         1 UNK         0.0000 
     61 H61        -2.5166    2.9166    7.3699 H         1 UNK         0.0000 
     62 H62        -4.4924    2.6670    8.7767 H         1 UNK         0.0000 
     63 H63        -4.9233    2.3478    7.0600 H         1 UNK         0.0000 
     64 C64        -3.1869    0.0353   -4.0383 C.ar      1 UNK         0.0000 
     65 C65        -4.1342    0.1023   -3.0241 C.ar      1 UNK         0.0000 
     66 C66        -3.7424    0.0732   -1.6947 C.ar      1 UNK         0.0000 
     67 C67        -2.3901    0.0073   -1.3455 C.ar      1 UNK         0.0000 
     68 O68        -2.0800    0.0000    0.0000 O.co2     1 UNK         0.0000 
     69 C69        -1.3804   -0.0359   -2.3945 C.ar      1 UNK         0.0000 
     70 O70        -0.0323    0.0000   -2.0797 O.co2     1 UNK         0.0000 
     71 C71        -1.8098   -0.0607   -3.7568 C.ar      1 UNK         0.0000 
     72 C72        -0.8929   -0.2207   -4.9340 C.2       1 UNK         0.0000 
     73 O73        -1.2479    0.2283   -6.0161 O.2       1 UNK         0.0000 
     74 N74         0.2623   -0.9463   -4.8540 N.am      1 UNK         0.0000 
     75 C75         1.1433   -1.1798   -5.9847 C.3       1 UNK         0.0000 
     76 C76         1.2013   -2.6819   -6.2777 C.3       1 UNK         0.0000 
     77 C77         2.1298   -2.9878   -7.4601 C.3       1 UNK         0.0000 
     78 C78         2.2678   -4.4949   -7.7405 C.3       1 UNK         0.0000 
     79 N79         1.0010   -5.1137   -8.1371 N.4       1 UNK         0.0000 
     80 H80         0.6032   -4.6219   -8.9699 H         1 UNK         0.0000 
     81 H81         0.3155   -5.0975   -7.3493 H         1 UNK         0.0000 
     82 H82         1.1775   -6.1130   -8.3888 H         1 UNK         0.0000 
     83 H83        -3.5443    0.0284   -5.0606 H         1 UNK         0.0000 
     84 H84        -5.1863    0.1609   -3.2714 H         1 UNK         0.0000 
     85 H85        -4.5012    0.1144   -0.9230 H         1 UNK         0.0000 
     86 H86         0.5150   -1.4235   -3.9785 H         1 UNK         0.0000 
     87 H87         0.7968   -0.6446   -6.8953 H         1 UNK         0.0000 
     88 H88         2.1586   -0.8040   -5.7325 H         1 UNK         0.0000 
     89 H89         0.1710   -3.0294   -6.5026 H         1 UNK         0.0000 
     90 H90         1.5721   -3.2139   -5.3738 H         1 UNK         0.0000 
     91 H91         1.7589   -2.4731   -8.3734 H         1 UNK         0.0000 
     92 H92         3.1429   -2.5938   -7.2254 H         1 UNK         0.0000 
     93 H93         3.0018   -4.6241   -8.5665 H         1 UNK         0.0000 
     94 H94         2.6718   -5.0110   -6.8414 H         1 UNK         0.0000 
@<TRIPOS>BOND
     1    1    6 nc   
     2    1    8 nc   
     3    1   37 nc   
     4    1   39 nc   
     5    1   68 nc   
     6    1   70 nc   
     7    2    3 ar   
     8    2    9 ar   
     9    2   21 1    
    10    3   22 1    
    11    3    4 ar   
    12    4   23 1    
    13    4    5 ar   
    14    5    6 1    
    15    5    7 ar   
    16    7    8 1    
    17    7    9 ar   
    18    9   10 1    
    19   10   11 2    
    20   10   12 am   BACKBONE|DICT|INTERRES
    21   12   13 1    
    22   12   24 1    
    23   13   26 1    
    24   13   25 1    
    25   13   14 1    
    26   14   15 1    
    27   14   27 1    
    28   14   28 1    
    29   15   30 1    
    30   15   29 1    
    31   15   16 1    
    32   16   17 1    
    33   16   31 1    
    34   16   32 1    
    35   17   19 1    
    36   17   18 1    
    37   17   20 1    
    38   33   52 1    
    39   33   34 ar   
    40   33   40 ar   
    41   34   53 1    
    42   34   35 ar   
    43   35   36 ar   
    44   35   54 1    
    45   36   38 ar   
    46   36   37 1    
    47   38   40 ar   
    48   38   39 1    
    49   40   41 1    
    50   41   42 2    
    51   41   43 am   BACKBONE|DICT|INTERRES
    52   43   44 1    
    53   43   55 1    
    54   44   45 1    
    55   44   56 1    
    56   44   57 1    
    57   45   58 1    
    58   45   46 1    
    59   45   59 1    
    60   46   47 1    
    61   46   60 1    
    62   46   61 1    
    63   47   48 1    
    64   47   62 1    
    65   47   63 1    
    66   48   51 1    
    67   48   49 1    
    68   48   50 1    
    69   64   71 ar   
    70   64   65 ar   
    71   64   83 1    
    72   65   66 ar   
    73   65   84 1    
    74   66   67 ar   
    75   66   85 1    
    76   67   68 1    
    77   67   69 ar   
    78   69   70 1    
    79   69   71 ar   
    80   71   72 1    
    81   72   74 am   BACKBONE|DICT|INTERRES
    82   72   73 2    
    83   74   86 1    
    84   74   75 1    
    85   75   88 1    
    86   75   76 1    
    87   75   87 1    
    88   76   90 1    
    89   76   77 1    
    90   76   89 1    
    91   77   92 1    
    92   77   78 1    
    93   77   91 1    
    94   78   94 1    
    95   78   79 1    
    96   78   93 1    
    97   79   81 1    
    98   79   80 1    
    99   79   82 1    
@<TRIPOS>SUBSTRUCTURE
     1 UNK         1 GROUP             0       ****    0 ROOT    
