@<TRIPOS>MOLECULE
267_TAGE_c1
66   70    1
SMALL
USER_CHARGES


@<TRIPOS>ATOM
      1 Fe1         1.0454    1.9250   -0.0988 Fe        1 UNK         0.0000 
      2 O2          1.1084    2.7916   -2.0460 O.co2     1 UNK         0.0000 
      3 C3          1.0032    1.9955   -2.9968 C.2       1 UNK         0.0000 
      4 C4          1.7390    2.2185   -4.3227 C.3       1 UNK         0.0000 
      5 N5          0.3997    0.8269   -2.6848 N.am      1 UNK         0.0000 
      6 O6         -0.0223    0.7257   -1.4325 O.co2     1 UNK         0.0000 
      7 C7          0.4774   -0.4191   -3.4984 C.3       1 UNK         0.0000 
      8 C8         -0.3513   -1.6152   -2.9272 C.2       1 UNK         0.0000 
      9 O9         -1.5721   -1.6571   -3.0887 O.2       1 UNK         0.0000 
     10 N10         0.3096   -2.5039   -2.1560 N.am      1 UNK         0.0000 
     11 C11        -0.3825   -3.4808   -1.2951 C.3       1 UNK         0.0000 
     12 C12         0.4175   -3.9673   -0.0497 C.3       1 UNK         0.0000 
     13 N13         0.7357   -2.8646    1.0273 N.4       1 UNK         0.0000 
     14 H14         1.2639   -2.1537    0.5328 H         1 UNK         0.0000 
     15 C15        -0.5608   -2.1403    1.5606 C.3       1 UNK         0.0000 
     16 C16        -0.3684   -1.3049    2.8802 C.3       1 UNK         0.0000 
     17 N17        -1.1685   -0.0642    3.0331 N.am      1 UNK         0.0000 
     18 C18        -0.9289    1.0128    2.2723 C.2       1 UNK         0.0000 
     19 O19        -0.1473    0.9089    1.3349 O.co2     1 UNK         0.0000 
     20 C20        -1.5772    2.3951    2.5341 C.3       1 UNK         0.0000 
     21 N21        -1.0191    3.5611    1.7468 N.am      1 UNK         0.0000 
     22 O22         0.2204    3.4555    1.2244 O.co2     1 UNK         0.0000 
     23 C23        -1.7250    4.7388    1.6775 C.2       1 UNK         0.0000 
     24 O24        -1.3419    5.7100    1.0241 O.2       1 UNK         0.0000 
     25 C25        -3.0520    4.9102    2.4347 C.3       1 UNK         0.0000 
     26 C26         1.6888   -3.4528    2.1306 C.3       1 UNK         0.0000 
     27 C27         3.1239   -2.8399    2.0798 C.3       1 UNK         0.0000 
     28 N28         3.2921   -1.6573    2.9344 N.am      1 UNK         0.0000 
     29 C29         3.7424   -0.4261    2.6268 C.2       1 UNK         0.0000 
     30 O30         3.7275    0.4411    3.4929 O.2       1 UNK         0.0000 
     31 C31         4.3199   -0.0721    1.2332 C.3       1 UNK         0.0000 
     32 N32         3.4767    0.9486    0.5993 N.am      1 UNK         0.0000 
     33 O33         2.2218    0.6019    0.3102 O.co2     1 UNK         0.0000 
     34 C34         3.6997    2.2928    0.4822 C.2       1 UNK         0.0000 
     35 O35         2.6342    2.8422    0.1329 O.co2     1 UNK         0.0000 
     36 C36         5.0325    3.0163    0.6864 C.3       1 UNK         0.0000 
     37 H37         1.0677    2.0564   -5.1655 H         1 UNK         0.0000 
     38 H38         2.5973    1.5457   -4.4168 H         1 UNK         0.0000 
     39 H39         2.1197    3.2402   -4.3664 H         1 UNK         0.0000 
     40 H40         1.5333   -0.6699   -3.5159 H         1 UNK         0.0000 
     41 H41         0.1337   -0.1990   -4.5072 H         1 UNK         0.0000 
     42 H42         1.3157   -2.5271   -2.2227 H         1 UNK         0.0000 
     43 H43        -0.5819   -4.3582   -1.9111 H         1 UNK         0.0000 
     44 H44        -1.3692   -3.1112   -0.9970 H         1 UNK         0.0000 
     45 H45         1.3698   -4.4161   -0.3537 H         1 UNK         0.0000 
     46 H46        -0.1424   -4.7493    0.4754 H         1 UNK         0.0000 
     47 H47        -1.2823   -2.9461    1.7186 H         1 UNK         0.0000 
     48 H48        -0.8871   -1.5255    0.7194 H         1 UNK         0.0000 
     49 H49        -0.6252   -1.9448    3.7247 H         1 UNK         0.0000 
     50 H50         0.6825   -1.0293    3.0066 H         1 UNK         0.0000 
     51 H51        -1.7825    0.0329    3.8316 H         1 UNK         0.0000 
     52 H52        -1.6482    2.5828    3.6051 H         1 UNK         0.0000 
     53 H53        -2.6032    2.2689    2.1950 H         1 UNK         0.0000 
     54 H54        -3.3930    5.9448    2.3451 H         1 UNK         0.0000 
     55 H55        -2.9637    4.6836    3.4957 H         1 UNK         0.0000 
     56 H56        -3.8153    4.2802    1.9930 H         1 UNK         0.0000 
     57 H57         1.2118   -3.3181    3.1042 H         1 UNK         0.0000 
     58 H58         1.7423   -4.5363    1.9785 H         1 UNK         0.0000 
     59 H59         3.4230   -2.6945    1.0390 H         1 UNK         0.0000 
     60 H60         3.8116   -3.5846    2.4895 H         1 UNK         0.0000 
     61 H61         3.0970   -1.7676    3.9189 H         1 UNK         0.0000 
     62 H62         5.3471    0.2541    1.3842 H         1 UNK         0.0000 
     63 H63         4.3903   -0.9060    0.5394 H         1 UNK         0.0000 
     64 H64         5.8263    2.3395    0.9938 H         1 UNK         0.0000 
     65 H65         4.9204    3.7900    1.4420 H         1 UNK         0.0000 
     66 H66         5.3406    3.4965   -0.2411 H         1 UNK         0.0000 
@<TRIPOS>BOND
     1    1    2 nc   
     2    1    6 nc   
     3    1   19 nc   
     4    1   22 nc   
     5    1   33 nc   
     6    1   35 nc   
     7    2    3 2    
     8    3    4 1    
     9    3    5 am   BACKBONE|DICT|INTERRES
    10    4   39 1    
    11    4   37 1    
    12    4   38 1    
    13    5    6 1    
    14    5    7 1    
    15    7    8 1    
    16    7   40 1    
    17    7   41 1    
    18    8    9 2    
    19    8   10 am   BACKBONE|DICT|INTERRES
    20   10   11 1    
    21   10   42 1    
    22   11   44 1    
    23   11   12 1    
    24   11   43 1    
    25   12   46 1    
    26   12   13 1    
    27   12   45 1    
    28   13   14 1    
    29   13   15 1    
    30   13   26 1    
    31   15   47 1    
    32   15   16 1    
    33   15   48 1    
    34   16   50 1    
    35   16   17 1    
    36   16   49 1    
    37   17   51 1    
    38   17   18 am   BACKBONE|DICT|INTERRES
    39   18   20 1    
    40   18   19 2    
    41   20   52 1    
    42   20   21 1    
    43   20   53 1    
    44   21   23 am   BACKBONE|DICT|INTERRES
    45   21   22 1    
    46   23   25 1    
    47   23   24 2    
    48   25   55 1    
    49   25   54 1    
    50   25   56 1    
    51   26   27 1    
    52   26   57 1    
    53   26   58 1    
    54   27   60 1    
    55   27   28 1    
    56   27   59 1    
    57   28   61 1    
    58   28   29 am   BACKBONE|DICT|INTERRES
    59   29   30 2    
    60   29   31 1    
    61   31   62 1    
    62   31   32 1    
    63   31   63 1    
    64   32   33 1    
    65   32   34 am   BACKBONE|DICT|INTERRES
    66   34   36 1    
    67   34   35 2    
    68   36   64 1    
    69   36   65 1    
    70   36   66 1    
@<TRIPOS>SUBSTRUCTURE
     1 UNK         1 GROUP             0       ****    0 ROOT    
