@<TRIPOS>MOLECULE
131_c1
95   100    1
SMALL
USER_CHARGES


@<TRIPOS>ATOM
      1 Fe1        -0.8030    5.0875    0.0620 Fe        1 UNK         0.0000 
      2 O2         -1.3982    6.2177    1.7801 O.co2     1 UNK         0.0000 
      3 C3         -1.3269    5.6040    2.8535 C.2       1 UNK         0.0000 
      4 C4         -1.1207    6.3027    4.1870 C.3       1 UNK         0.0000 
      5 N5         -1.4322    4.2657    2.7440 N.am      1 UNK         0.0000 
      6 O6         -1.7588    3.8520    1.5441 O.co2     1 UNK         0.0000 
      7 C7         -0.6630    3.2882    3.5668 C.3       1 UNK         0.0000 
      8 C8         -0.3193    1.9236    2.8739 C.3       1 UNK         0.0000 
      9 C9          0.6624    1.0428    3.6749 C.3       1 UNK         0.0000 
     10 C10         1.1627   -0.3095    3.0637 C.3       1 UNK         0.0000 
     11 H11         1.5548   -0.7646    3.9758 H         1 UNK         0.0000 
     12 N12         2.4353   -0.3439    2.3141 N.am      1 UNK         0.0000 
     13 C13         2.9287   -0.0970    1.0836 C.2       1 UNK         0.0000 
     14 O14         4.1225   -0.3550    0.9163 O.2       1 UNK         0.0000 
     15 C15         0.1222   -1.3668    2.6422 C.2       1 UNK         0.0000 
     16 O16        -0.9493   -1.0399    2.1432 O.2       1 UNK         0.0000 
     17 N17         0.4492   -2.6405    2.9165 N.am      1 UNK         0.0000 
     18 C18        -0.4560   -3.7704    2.7268 C.3       1 UNK         0.0000 
     19 C19         0.2645   -4.8016    1.8706 C.2       1 UNK         0.0000 
     20 O20         1.4240   -5.1178    2.1371 O.2       1 UNK         0.0000 
     21 N21        -0.4286   -5.3552    0.8747 N.am      1 UNK         0.0000 
     22 C22         0.1607   -6.2034   -0.1563 C.3       1 UNK         0.0000 
     23 H23         1.2478   -6.2006   -0.0804 H         1 UNK         0.0000 
     24 C24        -0.3215   -7.6625   -0.0166 C.3       1 UNK         0.0000 
     25 O25         0.3597   -8.5089   -0.9310 O.3       1 UNK         0.0000 
     26 C26        -0.2407   -5.5360   -1.4736 C.2       1 UNK         0.0000 
     27 O27        -1.4080   -5.6162   -1.8590 O.2       1 UNK         0.0000 
     28 N28         0.7173   -4.8342   -2.0864 N.am      1 UNK         0.0000 
     29 C29         0.4700   -3.9359   -3.2102 C.3       1 UNK         0.0000 
     30 C30         0.6334   -2.4961   -2.7034 C.2       1 UNK         0.0000 
     31 O31         0.2015   -2.1622   -1.6011 O.2       1 UNK         0.0000 
     32 N32         1.2463   -1.6484   -3.5366 N.am      1 UNK         0.0000 
     33 C33         1.4565   -0.2178   -3.3372 C.3       1 UNK         0.0000 
     34 H34         1.7116    0.0840   -4.3535 H         1 UNK         0.0000 
     35 C35         0.1807    0.6178   -3.0683 C.3       1 UNK         0.0000 
     36 C36         0.3516    2.1318   -3.3024 C.3       1 UNK         0.0000 
     37 C37        -1.0035    2.8595   -3.5701 C.3       1 UNK         0.0000 
     38 N38        -1.3362    3.9121   -2.5981 N.am      1 UNK         0.0000 
     39 O39        -1.3119    3.5455   -1.3318 O.co2     1 UNK         0.0000 
     40 C40        -1.5130    5.2292   -2.8208 C.2       1 UNK         0.0000 
     41 O41        -1.5951    5.8902   -1.7782 O.co2     1 UNK         0.0000 
     42 C42        -1.5048    5.8468   -4.2241 C.3       1 UNK         0.0000 
     43 C43         2.7985    0.0301   -2.6044 C.2       1 UNK         0.0000 
     44 O44         3.8056   -0.0627   -3.3000 O.2       1 UNK         0.0000 
     45 N45         2.9751    0.2836   -1.3019 N.am      1 UNK         0.0000 
     46 C46         2.1581    0.5375   -0.1096 C.3       1 UNK         0.0000 
     47 H47         1.1675    0.0817   -0.1846 H         1 UNK         0.0000 
     48 C48         2.0423    2.0631    0.1166 C.3       1 UNK         0.0000 
     49 C49         3.0868    3.0112   -0.5555 C.3       1 UNK         0.0000 
     50 C50         3.1415    4.4971   -0.0533 C.3       1 UNK         0.0000 
     51 N51         1.8644    5.2349   -0.0169 N.am      1 UNK         0.0000 
     52 O52         0.8408    4.5923    0.5024 O.co2     1 UNK         0.0000 
     53 C53         1.5136    6.4218   -0.5592 C.2       1 UNK         0.0000 
     54 O54         0.3022    6.6075   -0.3819 O.co2     1 UNK         0.0000 
     55 C55         2.4101    7.3078   -1.4215 C.3       1 UNK         0.0000 
     56 H56        -0.8529    5.6109    4.9794 H         1 UNK         0.0000 
     57 H57        -2.0394    6.8056    4.4786 H         1 UNK         0.0000 
     58 H58        -0.3355    7.0433    4.0851 H         1 UNK         0.0000 
     59 H59        -1.2255    3.0725    4.4731 H         1 UNK         0.0000 
     60 H60         0.2721    3.7332    3.9206 H         1 UNK         0.0000 
     61 H61         0.0975    2.0756    1.8904 H         1 UNK         0.0000 
     62 H62        -1.2545    1.3872    2.7146 H         1 UNK         0.0000 
     63 H63         1.5333    1.6347    3.9562 H         1 UNK         0.0000 
     64 H64         0.1510    0.8011    4.6135 H         1 UNK         0.0000 
     65 H65         3.1538   -0.7706    2.8715 H         1 UNK         0.0000 
     66 H66         1.3800   -2.8709    3.2290 H         1 UNK         0.0000 
     67 H67        -1.4037   -3.4702    2.2840 H         1 UNK         0.0000 
     68 H68        -0.6789   -4.2124    3.6956 H         1 UNK         0.0000 
     69 H69        -1.3391   -4.9849    0.6395 H         1 UNK         0.0000 
     70 H70        -0.1249   -8.0205    0.9938 H         1 UNK         0.0000 
     71 H71        -1.3984   -7.7367   -0.1654 H         1 UNK         0.0000 
     72 H72        -0.0593   -9.3741   -0.9447 H         1 UNK         0.0000 
     73 H73         1.6068   -4.7361   -1.6228 H         1 UNK         0.0000 
     74 H74         1.1611   -4.1637   -4.0245 H         1 UNK         0.0000 
     75 H75        -0.5426   -4.0354   -3.6023 H         1 UNK         0.0000 
     76 H76         1.6731   -2.0014   -4.3830 H         1 UNK         0.0000 
     77 H77        -0.5648    0.2614   -3.7908 H         1 UNK         0.0000 
     78 H78        -0.2431    0.4121   -2.0817 H         1 UNK         0.0000 
     79 H79         1.0382    2.3267   -4.1315 H         1 UNK         0.0000 
     80 H80         0.8447    2.5398   -2.4250 H         1 UNK         0.0000 
     81 H81        -0.9981    3.2679   -4.5801 H         1 UNK         0.0000 
     82 H82        -1.8514    2.1712   -3.5514 H         1 UNK         0.0000 
     83 H83        -1.6573    6.9203   -4.1873 H         1 UNK         0.0000 
     84 H84        -0.5543    5.6669   -4.7251 H         1 UNK         0.0000 
     85 H85        -2.2971    5.4200   -4.8318 H         1 UNK         0.0000 
     86 H86         3.9411    0.2656   -1.0107 H         1 UNK         0.0000 
     87 H87         2.0605    2.2887    1.1866 H         1 UNK         0.0000 
     88 H88         1.0292    2.2905   -0.2206 H         1 UNK         0.0000 
     89 H89         2.9226    3.0233   -1.6291 H         1 UNK         0.0000 
     90 H90         4.0861    2.5950   -0.4097 H         1 UNK         0.0000 
     91 H91         3.8817    5.0600   -0.6233 H         1 UNK         0.0000 
     92 H92         3.5171    4.5017    0.9761 H         1 UNK         0.0000 
     93 H93         2.7519    6.7540   -2.2928 H         1 UNK         0.0000 
     94 H94         3.2598    7.6445   -0.8474 H         1 UNK         0.0000 
     95 H95         1.8818    8.1820   -1.7901 H         1 UNK         0.0000 
@<TRIPOS>BOND
     1    1    2 nc   
     2    1    6 nc   
     3    1   39 nc   
     4    1   41 nc   
     5    1   52 nc   
     6    1   54 nc   
     7    2    3 2    
     8    3    4 1    
     9    3    5 am   BACKBONE|DICT|INTERRES
    10    4   57 1    
    11    4   56 1    
    12    4   58 1    
    13    5    7 1    
    14    5    6 1    
    15    7   60 1    
    16    7   59 1    
    17    7    8 1    
    18    8    9 1    
    19    8   61 1    
    20    8   62 1    
    21    9   63 1    
    22    9   64 1    
    23    9   10 1    
    24   10   11 1    
    25   10   12 1    
    26   10   15 1    
    27   12   65 1    
    28   12   13 am   BACKBONE|DICT|INTERRES
    29   13   14 2    
    30   13   46 1    
    31   15   17 am   BACKBONE|DICT|INTERRES
    32   15   16 2    
    33   17   66 1    
    34   17   18 1    
    35   18   68 1    
    36   18   19 1    
    37   18   67 1    
    38   19   20 2    
    39   19   21 am   BACKBONE|DICT|INTERRES
    40   21   22 1    
    41   21   69 1    
    42   22   24 1    
    43   22   23 1    
    44   22   26 1    
    45   24   70 1    
    46   24   25 1    
    47   24   71 1    
    48   25   72 1    
    49   26   27 2    
    50   26   28 am   BACKBONE|DICT|INTERRES
    51   28   73 1    
    52   28   29 1    
    53   29   30 1    
    54   29   74 1    
    55   29   75 1    
    56   30   31 2    
    57   30   32 am   BACKBONE|DICT|INTERRES
    58   32   33 1    
    59   32   76 1    
    60   33   34 1    
    61   33   35 1    
    62   33   43 1    
    63   35   78 1    
    64   35   36 1    
    65   35   77 1    
    66   36   80 1    
    67   36   37 1    
    68   36   79 1    
    69   37   82 1    
    70   37   38 1    
    71   37   81 1    
    72   38   39 1    
    73   38   40 am   BACKBONE|DICT|INTERRES
    74   40   41 2    
    75   40   42 1    
    76   42   83 1    
    77   42   84 1    
    78   42   85 1    
    79   43   45 am   BACKBONE|DICT|INTERRES
    80   43   44 2    
    81   45   86 1    
    82   45   46 1    
    83   46   47 1    
    84   46   48 1    
    85   48   87 1    
    86   48   49 1    
    87   48   88 1    
    88   49   90 1    
    89   49   50 1    
    90   49   89 1    
    91   50   92 1    
    92   50   51 1    
    93   50   91 1    
    94   51   53 am   BACKBONE|DICT|INTERRES
    95   51   52 1    
    96   53   54 2    
    97   53   55 1    
    98   55   94 1    
    99   55   93 1    
   100   55   95 1    
@<TRIPOS>SUBSTRUCTURE
     1 UNK         1 GROUP             0       ****    0 ROOT    
