@<TRIPOS>MOLECULE
161_c1
110   114    1
SMALL
USER_CHARGES


@<TRIPOS>ATOM
      1 Fe1         0.6732    3.6678    0.6899 Fe        1 UNK         0.0000 
      2 O2          8.5508   -0.1114    2.3322 O.3       1 UNK         0.0000 
      3 C3          7.6280    0.8915    2.0099 C.3       1 UNK         0.0000 
      4 C4          6.2075    0.3327    2.1530 C.3       1 UNK         0.0000 
      5 C5          5.0801    1.3146    1.8490 C.3       1 UNK         0.0000 
      6 C6          5.4145    2.7290    1.4109 C.3       1 UNK         0.0000 
      7 C7          3.8154    0.8408    2.0134 C.2       1 UNK         0.0000 
      8 C8          2.5307    1.5774    1.8288 C.1       1 UNK         0.0000 
      9 O9          2.4065    2.7126    1.4151 O.co2     1 UNK         0.0000 
     10 N10         1.3439    1.1213    2.0770 N.pl3     1 UNK         0.0000 
     11 O11         0.5504    2.1581    1.8604 O.co2     1 UNK         0.0000 
     12 C12         0.8590   -0.1758    2.5125 C.3       1 UNK         0.0000 
     13 C13         0.0178   -0.7986    1.3852 C.3       1 UNK         0.0000 
     14 C14        -0.7908   -2.0129    1.8721 C.3       1 UNK         0.0000 
     15 C15        -1.3982   -2.8769    0.7333 C.3       1 UNK         0.0000 
     16 H16        -0.5345   -3.2605    0.1434 H         1 UNK         0.0000 
     17 N17        -2.1072   -4.0255    1.3135 N.4       1 UNK         0.0000 
     18 H18        -2.4341   -4.6711    0.5581 H         1 UNK         0.0000 
     19 H19        -2.9330   -3.6994    1.8674 H         1 UNK         0.0000 
     20 H20        -1.4668   -4.5668    1.9391 H         1 UNK         0.0000 
     21 C21        -2.3041   -2.1654   -0.2631 C.2       1 UNK         0.0000 
     22 O22        -2.6986   -2.7998   -1.2329 O.2       1 UNK         0.0000 
     23 O23        -2.6243   -0.8493   -0.1462 O.3       1 UNK         0.0000 
     24 C24        -3.0478   -0.0914   -1.2268 C.3       1 UNK         0.0000 
     25 C25        -3.2412    1.3744   -0.8224 C.3       1 UNK         0.0000 
     26 C26        -3.3470    2.2602   -2.0698 C.2       1 UNK         0.0000 
     27 C27        -4.5501    2.0814   -2.9604 C.3       1 UNK         0.0000 
     28 C28        -2.3944    3.1542   -2.4674 C.2       1 UNK         0.0000 
     29 C29        -1.1311    3.4427   -1.7358 C.2       1 UNK         0.0000 
     30 O30        -0.9640    3.2496   -0.5737 O.co2     1 UNK         0.0000 
     31 N31        -0.0378    3.9549   -2.1900 N.am      1 UNK         0.0000 
     32 O32         0.8517    3.8497   -1.1869 O.co2     1 UNK         0.0000 
     33 C33         0.1666    4.4999   -3.5184 C.3       1 UNK         0.0000 
     34 C34         1.5169    5.2044   -3.6772 C.3       1 UNK         0.0000 
     35 C35         1.5863    5.8454   -5.0755 C.3       1 UNK         0.0000 
     36 C36         2.8954    6.6007   -5.3946 C.3       1 UNK         0.0000 
     37 H37         3.7515    5.9052   -5.2443 H         1 UNK         0.0000 
     38 N38         2.8861    7.0006   -6.8116 N.4       1 UNK         0.0000 
     39 H39         2.7932    6.1557   -7.4215 H         1 UNK         0.0000 
     40 H40         3.7875    7.4713   -7.0581 H         1 UNK         0.0000 
     41 H41         2.0904    7.6508   -7.0099 H         1 UNK         0.0000 
     42 C42         3.1155    7.8128   -4.5012 C.2       1 UNK         0.0000 
     43 O43         3.1941    8.9313   -4.9939 O.2       1 UNK         0.0000 
     44 O44         3.3075    7.6384   -3.1681 O.3       1 UNK         0.0000 
     45 C45         3.8022    8.5939   -2.2973 C.3       1 UNK         0.0000 
     46 C46         2.8509    8.8611   -1.1214 C.3       1 UNK         0.0000 
     47 C47         2.4372    7.6074   -0.3697 C.2       1 UNK         0.0000 
     48 C48         3.4910    6.6350    0.1134 C.3       1 UNK         0.0000 
     49 C49         1.1266    7.4115   -0.0851 C.2       1 UNK         0.0000 
     50 C50         0.6143    6.2315    0.6471 C.2       1 UNK         0.0000 
     51 O51         1.1586    5.1502    0.8652 O.co2     1 UNK         0.0000 
     52 N52        -0.4551    6.0381    1.2385 N.am      1 UNK         0.0000 
     53 O53         0.0361    4.8866    1.7595 O.co2     1 UNK         0.0000 
     54 C54        -1.4490    6.9629    1.7276 C.3       1 UNK         0.0000 
     55 C55        -0.9048    7.7094    2.9386 C.3       1 UNK         0.0000 
     56 C56        -1.9555    8.6673    3.5044 C.3       1 UNK         0.0000 
     57 C57        -1.4250    9.4410    4.7259 C.3       1 UNK         0.0000 
     58 H58        -0.5181   10.0094    4.4104 H         1 UNK         0.0000 
     59 C59        -1.0485    8.4971    5.8465 C.2       1 UNK         0.0000 
     60 O60        -1.9783    7.6924    6.3979 O.3       1 UNK         0.0000 
     61 O61         0.1021    8.4516    6.2497 O.2       1 UNK         0.0000 
     62 N62        -2.4305   10.3972    5.1947 N.4       1 UNK         0.0000 
     63 H63        -2.0557   10.9357    6.0085 H         1 UNK         0.0000 
     64 H64        -2.6591   11.0745    4.4303 H         1 UNK         0.0000 
     65 H65        -3.3066    9.9013    5.4829 H         1 UNK         0.0000 
     66 H66         9.4464    0.3142    2.2910 H         1 UNK         0.0000 
     67 H67         7.7563    1.7466    2.7104 H         1 UNK         0.0000 
     68 H68         7.7953    1.2198    0.9605 H         1 UNK         0.0000 
     69 H69         6.0902   -0.0181    3.2029 H         1 UNK         0.0000 
     70 H70         6.1069   -0.5438    1.4767 H         1 UNK         0.0000 
     71 H71         6.0058    2.6963    0.4731 H         1 UNK         0.0000 
     72 H72         6.0126    3.2305    2.2010 H         1 UNK         0.0000 
     73 H73         4.5554    3.3859    1.2142 H         1 UNK         0.0000 
     74 H74         3.7222   -0.1870    2.3456 H         1 UNK         0.0000 
     75 H75         0.2420   -0.0209    3.4235 H         1 UNK         0.0000 
     76 H76         1.6810   -0.8735    2.7706 H         1 UNK         0.0000 
     77 H77        -0.6883   -0.0406    0.9939 H         1 UNK         0.0000 
     78 H78         0.7141   -1.0883    0.5680 H         1 UNK         0.0000 
     79 H79        -0.1019   -2.6781    2.4391 H         1 UNK         0.0000 
     80 H80        -1.5833   -1.6638    2.5697 H         1 UNK         0.0000 
     81 H81        -2.2382   -0.1305   -1.9912 H         1 UNK         0.0000 
     82 H82        -3.9785   -0.5060   -1.6712 H         1 UNK         0.0000 
     83 H83        -4.1294    1.4964   -0.1668 H         1 UNK         0.0000 
     84 H84        -2.3734    1.6085   -0.1993 H         1 UNK         0.0000 
     85 H85        -4.2277    1.7484   -3.9699 H         1 UNK         0.0000 
     86 H86        -5.2521    1.3266   -2.5487 H         1 UNK         0.0000 
     87 H87        -5.0959    3.0443   -3.0506 H         1 UNK         0.0000 
     88 H88        -2.5329    3.6589   -3.4197 H         1 UNK         0.0000 
     89 H89         0.0480    3.6923   -4.2738 H         1 UNK         0.0000 
     90 H90        -0.6224    5.2651   -3.6927 H         1 UNK         0.0000 
     91 H91         1.5833    5.9850   -2.8941 H         1 UNK         0.0000 
     92 H92         2.3481    4.4785   -3.5465 H         1 UNK         0.0000 
     93 H93         0.7322    6.5459   -5.2099 H         1 UNK         0.0000 
     94 H94         1.4763    5.0225   -5.8166 H         1 UNK         0.0000 
     95 H95         4.7724    8.2225   -1.9129 H         1 UNK         0.0000 
     96 H96         4.0206    9.5586   -2.8052 H         1 UNK         0.0000 
     97 H97         1.9550    9.4038   -1.4968 H         1 UNK         0.0000 
     98 H98         3.3811    9.5365   -0.4169 H         1 UNK         0.0000 
     99 H99         4.5169    6.9730   -0.1244 H         1 UNK         0.0000 
    100 H100        3.4309    6.5378    1.2182 H         1 UNK         0.0000 
    101 H101        3.3383    5.6414   -0.3582 H         1 UNK         0.0000 
    102 H102        0.3971    8.1632   -0.3723 H         1 UNK         0.0000 
    103 H103       -2.3579    6.3895    2.0115 H         1 UNK         0.0000 
    104 H104       -1.7259    7.6764    0.9205 H         1 UNK         0.0000 
    105 H105        0.0002    8.2824    2.6393 H         1 UNK         0.0000 
    106 H106       -0.6175    6.9627    3.7098 H         1 UNK         0.0000 
    107 H107       -2.8671    8.0951    3.7886 H         1 UNK         0.0000 
    108 H108       -2.2350    9.3946    2.7098 H         1 UNK         0.0000 
    109 H109        5.0715    0.9896    0.8086 H         1 UNK         0.0000 
    110 H110       -1.5743    7.1626    7.0891 H         1 UNK         0.0000 
@<TRIPOS>BOND
     1    1    9 nc   
     2    1   11 nc   
     3    1   30 nc   
     4    1   32 nc   
     5    1   51 nc   
     6    1   53 nc   
     7    2    3 1    
     8    2   66 1    
     9    3    4 1    
    10    3   67 1    
    11    3   68 1    
    12    4   69 1    
    13    4    5 1    
    14    4   70 1    
    15    5    7 1    
    16    5    6 1    
    17    5  109 1    
    18    6   72 1    
    19    6   71 1    
    20    6   73 1    
    21    7   74 1    
    22    7    8 2    
    23    8   10 1    
    24    8    9 2    
    25   10   12 1    
    26   10   11 1    
    27   12   76 1    
    28   12   75 1    
    29   12   13 1    
    30   13   14 1    
    31   13   77 1    
    32   13   78 1    
    33   14   79 1    
    34   14   80 1    
    35   14   15 1    
    36   15   16 1    
    37   15   17 1    
    38   15   21 1    
    39   17   19 1    
    40   17   20 1    
    41   17   18 1    
    42   21   23 1    
    43   21   22 2    
    44   23   24 1    
    45   24   25 1    
    46   24   81 1    
    47   24   82 1    
    48   25   84 1    
    49   25   83 1    
    50   25   26 1    
    51   26   27 1    
    52   26   28 2    
    53   27   86 1    
    54   27   85 1    
    55   27   87 1    
    56   28   29 1    
    57   28   88 1    
    58   29   31 am   BACKBONE|DICT|INTERRES
    59   29   30 2    
    60   31   32 1    
    61   31   33 1    
    62   33   34 1    
    63   33   89 1    
    64   33   90 1    
    65   34   92 1    
    66   34   91 1    
    67   34   35 1    
    68   35   36 1    
    69   35   93 1    
    70   35   94 1    
    71   36   37 1    
    72   36   42 1    
    73   36   38 1    
    74   38   39 1    
    75   38   40 1    
    76   38   41 1    
    77   42   44 1    
    78   42   43 2    
    79   44   45 1    
    80   45   95 1    
    81   45   46 1    
    82   45   96 1    
    83   46   98 1    
    84   46   47 1    
    85   46   97 1    
    86   47   49 2    
    87   47   48 1    
    88   48  100 1    
    89   48   99 1    
    90   48  101 1    
    91   49   50 1    
    92   49  102 1    
    93   50   51 2    
    94   50   52 am   BACKBONE|DICT|INTERRES
    95   52   54 1    
    96   52   53 1    
    97   54  103 1    
    98   54   55 1    
    99   54  104 1    
   100   55   56 1    
   101   55  106 1    
   102   55  105 1    
   103   56  107 1    
   104   56   57 1    
   105   56  108 1    
   106   57   58 1    
   107   57   62 1    
   108   57   59 1    
   109   59   61 2    
   110   59   60 1    
   111   60  110 1    
   112   62   65 1    
   113   62   63 1    
   114   62   64 1    
@<TRIPOS>SUBSTRUCTURE
     1 UNK         1 GROUP             0       ****    0 ROOT    
