@<TRIPOS>MOLECULE
007_c1
106   111    1
SMALL
USER_CHARGES


@<TRIPOS>ATOM
      1 C1         -9.6125  -18.1863   -5.3763 C.3       1 UNK         0.0000 
      2 C2         -8.2264  -18.7737   -4.9309 C.3       1 UNK         0.0000 
      3 C3        -10.3811  -19.0997   -6.3965 C.3       1 UNK         0.0000 
      4 O4        -11.5863  -16.8301   -8.2708 O.2       1 UNK         0.0000 
      5 C5        -11.8651  -18.7271   -6.7485 C.3       1 UNK         0.0000 
      6 C6        -11.9454  -17.2643   -7.1671 C.2       1 UNK         0.0000 
      7 N7        -12.4263  -19.6709   -7.7620 N.3       1 UNK         0.0000 
      8 O8        -12.3813  -16.5055   -6.1397 O.3       1 UNK         0.0000 
      9 C9        -12.2934  -15.0993   -6.1787 C.3       1 UNK         0.0000 
     10 N10        -7.3853  -17.9339   -4.0298 N.am      1 UNK         0.0000 
     11 C11        -7.3081  -18.0745   -2.6794 C.2       1 UNK         0.0000 
     12 C12        -7.5367  -19.3194   -1.9979 C.2       1 UNK         0.0000 
     13 O13        -6.9152  -17.0921   -2.0282 O.co2     1 UNK         0.0000 
     14 O14        -6.7073  -16.9292   -4.6361 O.co2     1 UNK         0.0000 
     15 C15        -6.8728  -20.4827   -2.2166 C.2       1 UNK         0.0000 
     16 C16        -6.9587  -21.6241   -1.2062 C.3       1 UNK         0.0000 
     17 C17        -5.9253  -20.7778   -3.3885 C.3       1 UNK         0.0000 
     18 C18        -7.5665  -21.2728    0.1731 C.3       1 UNK         0.0000 
     19 O19        -7.1568  -22.2177    1.1354 O.3       1 UNK         0.0000 
     20 C20       -10.0436  -13.3572   -5.3147 C.3       1 UNK         0.0000 
     21 C21       -10.9063  -14.0754   -4.2624 C.2       1 UNK         0.0000 
     22 C22       -12.2776  -14.5773   -4.7131 C.3       1 UNK         0.0000 
     23 C23       -10.4791  -14.3506   -2.9986 C.2       1 UNK         0.0000 
     24 C24        -9.0766  -14.5084   -2.7366 C.2       1 UNK         0.0000 
     25 O25        -8.4387  -15.2571   -3.4867 O.co2     1 UNK         0.0000 
     26 N26        -8.4031  -13.9485   -1.7162 N.am      1 UNK         0.0000 
     27 O27        -7.1161  -14.2704   -1.5460 O.co2     1 UNK         0.0000 
     28 C28        -8.8350  -12.7717   -0.9079 C.3       1 UNK         0.0000 
     29 N29        -5.8156  -10.0058    2.1314 N.am      1 UNK         0.0000 
     30 C30        -6.6785  -11.2000    2.1758 C.3       1 UNK         0.0000 
     31 C31        -7.4907  -11.3907    0.8461 C.3       1 UNK         0.0000 
     32 C32        -8.2674  -12.7003    0.5634 C.3       1 UNK         0.0000 
     33 C33        -4.5580  -10.0422    1.6679 C.2       1 UNK         0.0000 
     34 C34        -3.8804  -11.4506    1.6722 C.3       1 UNK         0.0000 
     35 C35        -5.9241  -12.4817    2.6570 C.2       1 UNK         0.0000 
     36 N36        -4.6196  -12.5277    2.3609 N.am      1 UNK         0.0000 
     37 O37        -4.0052   -8.9888    1.3769 O.2       1 UNK         0.0000 
     38 O38        -6.3912  -13.3911    3.3265 O.2       1 UNK         0.0000 
     39 C39        -5.3134  -11.8780   -3.9941 C.2       1 UNK         0.0000 
     40 C40        -5.2615  -13.2899   -3.7399 C.2       1 UNK         0.0000 
     41 O41        -6.1538  -13.9668   -4.2737 O.co2     1 UNK         0.0000 
     42 N42        -4.4592  -13.9312   -2.8491 N.am      1 UNK         0.0000 
     43 O43        -4.5873  -15.2577   -2.6048 O.co2     1 UNK         0.0000 
     44 C44        -3.3180  -11.8366    0.2762 C.3       1 UNK         0.0000 
     45 C45        -4.3011  -12.4569   -0.7524 C.3       1 UNK         0.0000 
     46 C46        -3.5700  -13.2224   -1.8876 C.3       1 UNK         0.0000 
     47 C47        -4.5051  -11.2551   -4.8849 C.2       1 UNK         0.0000 
     48 C48        -5.1698  -10.4573   -6.0170 C.3       1 UNK         0.0000 
     49 C49        -2.9897  -11.4156   -4.9971 C.3       1 UNK         0.0000 
     50 C50        -6.4401  -11.1758   -6.5790 C.3       1 UNK         0.0000 
     51 H51        -7.3850  -11.0257    2.9917 H         1 UNK         0.0000 
     52 H52        -3.0040  -11.2098    2.2868 H         1 UNK         0.0000 
     53 O53        -6.9208  -10.5756   -7.7598 O.3       1 UNK         0.0000 
     54 H54        -9.4493  -17.1980   -5.8133 H         1 UNK         0.0000 
     55 H55       -10.2369  -18.0379   -4.4946 H         1 UNK         0.0000 
     56 H56        -7.6498  -18.9490   -5.8478 H         1 UNK         0.0000 
     57 H57        -8.4141  -19.7884   -4.5527 H         1 UNK         0.0000 
     58 H58       -10.3903  -20.1131   -5.9972 H         1 UNK         0.0000 
     59 H59        -9.8197  -19.1569   -7.3339 H         1 UNK         0.0000 
     60 H60       -12.4593  -18.8285   -5.8429 H         1 UNK         0.0000 
     61 H61       -11.8522  -19.6639   -8.5997 H         1 UNK         0.0000 
     62 C62       -13.8427  -19.5114   -8.0989 C.3       1 UNK         0.0000 
     63 H63       -13.1160  -14.6566   -6.7537 H         1 UNK         0.0000 
     64 H64       -11.3689  -14.8469   -6.7207 H         1 UNK         0.0000 
     65 H65        -8.2390  -19.1975   -1.1866 H         1 UNK         0.0000 
     66 H66        -5.9342  -21.9518   -1.0459 H         1 UNK         0.0000 
     67 H67        -7.4960  -22.4380   -1.6881 H         1 UNK         0.0000 
     68 H68        -5.8328  -19.9665   -4.1098 H         1 UNK         0.0000 
     69 H69        -6.2953  -21.6408   -3.9360 H         1 UNK         0.0000 
     70 H70        -4.9211  -21.0049   -3.0367 H         1 UNK         0.0000 
     71 H71        -8.6588  -21.2337    0.1341 H         1 UNK         0.0000 
     72 H72        -7.2390  -20.2951    0.5468 H         1 UNK         0.0000 
     73 H73        -7.4274  -23.1014    0.8722 H         1 UNK         0.0000 
     74 H74       -10.6547  -12.9683   -6.1287 H         1 UNK         0.0000 
     75 H75        -9.3051  -14.0393   -5.7484 H         1 UNK         0.0000 
     76 H76        -9.5265  -12.4945   -4.8925 H         1 UNK         0.0000 
     77 H77       -13.0356  -13.7981   -4.5788 H         1 UNK         0.0000 
     78 H78       -12.5413  -15.4192   -4.0509 H         1 UNK         0.0000 
     79 H79       -11.1062  -14.6691   -2.1967 H         1 UNK         0.0000 
     80 H80        -9.9205  -12.6257   -0.8916 H         1 UNK         0.0000 
     81 H81        -8.4822  -11.9226   -1.4858 H         1 UNK         0.0000 
     82 H82        -6.1992   -9.0744    2.1736 H         1 UNK         0.0000 
     83 H83        -6.8021  -11.2150    0.0155 H         1 UNK         0.0000 
     84 H84        -8.1827  -10.5511    0.8103 H         1 UNK         0.0000 
     85 H85        -9.0839  -12.8101    1.2772 H         1 UNK         0.0000 
     86 H86        -7.6007  -13.5406    0.7518 H         1 UNK         0.0000 
     87 H87        -4.1636  -13.3837    2.6483 H         1 UNK         0.0000 
     88 H88        -6.2964  -11.5492   -3.6996 H         1 UNK         0.0000 
     89 H89        -2.5379  -12.5672    0.4849 H         1 UNK         0.0000 
     90 H90        -2.7955  -10.9876   -0.1724 H         1 UNK         0.0000 
     91 H91        -4.9131  -11.6580   -1.1711 H         1 UNK         0.0000 
     92 H92        -4.9797  -13.1471   -0.2489 H         1 UNK         0.0000 
     93 H93        -2.9382  -13.9705   -1.4002 H         1 UNK         0.0000 
     94 H94        -2.8358  -12.5609   -2.3621 H         1 UNK         0.0000 
     95 H95        -4.4462  -10.3551   -6.8263 H         1 UNK         0.0000 
     96 H96        -5.4273   -9.4482   -5.6991 H         1 UNK         0.0000 
     97 H97        -2.5656  -12.2263   -4.4178 H         1 UNK         0.0000 
     98 H98        -2.4887  -10.5061   -4.6444 H         1 UNK         0.0000 
     99 H99        -2.6631  -11.5678   -6.0198 H         1 UNK         0.0000 
    100 H100       -7.2434  -11.1614   -5.8339 H         1 UNK         0.0000 
    101 H101       -6.2682  -12.2380   -6.7920 H         1 UNK         0.0000 
    102 H102       -7.3769   -9.7654   -7.5229 H         1 UNK         0.0000 
    103 H103      -14.4891  -19.5469   -7.2186 H         1 UNK         0.0000 
    104 H104      -14.1629  -20.3158   -8.7566 H         1 UNK         0.0000 
    105 H105      -14.0330  -18.5722   -8.6179 H         1 UNK         0.0000 
    106 Fe106      -6.5887  -15.4921   -3.0989 Fe        1 UNK         0.0000 
@<TRIPOS>BOND
     1    1   54 1    
     2    1   55 1    
     3    1    2 1    
     4    1    3 1    
     5    2   10 1    
     6    2   56 1    
     7    2   57 1    
     8    3   58 1    
     9    3   59 1    
    10    3    5 1    
    11    4    6 2    
    12    5    7 1    
    13    5   60 1    
    14    5    6 1    
    15    6    8 1    
    16    7   61 1    
    17    7   62 1    
    18    8    9 1    
    19    9   22 1    
    20    9   63 1    
    21    9   64 1    
    22   10   11 am   BACKBONE|DICT|INTERRES
    23   10   14 1    
    24   11   12 1    
    25   11   13 2    
    26   12   15 2    
    27   12   65 1    
    28   13  106 nc   
    29   14  106 nc   
    30   15   16 1    
    31   15   17 1    
    32   16   18 1    
    33   16   66 1    
    34   16   67 1    
    35   17   68 1    
    36   17   69 1    
    37   17   70 1    
    38   18   19 1    
    39   18   71 1    
    40   18   72 1    
    41   19   73 1    
    42   20   74 1    
    43   20   75 1    
    44   20   76 1    
    45   20   21 1    
    46   21   22 1    
    47   21   23 2    
    48   22   77 1    
    49   22   78 1    
    50   23   79 1    
    51   23   24 1    
    52   24   25 2    
    53   24   26 am   BACKBONE|DICT|INTERRES
    54   25  106 nc   
    55   26   28 1    
    56   26   27 1    
    57   27  106 nc   
    58   28   80 1    
    59   28   81 1    
    60   28   32 1    
    61   29   82 1    
    62   29   30 1    
    63   29   33 am   BACKBONE|DICT|INTERRES
    64   30   51 1    
    65   30   31 1    
    66   30   35 1    
    67   31   83 1    
    68   31   84 1    
    69   31   32 1    
    70   32   85 1    
    71   32   86 1    
    72   33   37 2    
    73   33   34 1    
    74   34   52 1    
    75   34   36 1    
    76   34   44 1    
    77   35   38 2    
    78   35   36 am   BACKBONE|DICT|INTERRES
    79   36   87 1    
    80   39   88 1    
    81   39   40 1    
    82   39   47 2    
    83   40   41 2    
    84   40   42 am   BACKBONE|DICT|INTERRES
    85   41  106 nc   
    86   42   43 1    
    87   42   46 1    
    88   43  106 nc   
    89   44   45 1    
    90   44   89 1    
    91   44   90 1    
    92   45   46 1    
    93   45   91 1    
    94   45   92 1    
    95   46   93 1    
    96   46   94 1    
    97   47   49 1    
    98   47   48 1    
    99   48   50 1    
   100   48   95 1    
   101   48   96 1    
   102   49   97 1    
   103   49   98 1    
   104   49   99 1    
   105   50   53 1    
   106   50  100 1    
   107   50  101 1    
   108   53  102 1    
   109   62  103 1    
   110   62  104 1    
   111   62  105 1    
@<TRIPOS>SUBSTRUCTURE
     1 UNK         1 GROUP             0       ****    0 ROOT    
