@<TRIPOS>MOLECULE
011_r2_c1
86   95    1
SMALL
USER_CHARGES


@<TRIPOS>ATOM
      1 Fe1         0.0000    0.0000    0.0000 Fe        1 UNK         0.0000 
      2 C2          0.8956    7.0498   -2.7007 C.ar      1 UNK         0.0000 
      3 N3          0.1466    8.0647   -3.1787 N.2       1 UNK         0.0000 
      4 C4         -0.3165    8.7017   -2.0811 C.ar      1 UNK         0.0000 
      5 N5          0.1104    8.1292   -0.9410 N.pl3     1 UNK         0.0000 
      6 H6         -0.1099    8.4315    0.0339 H         1 UNK         0.0000 
      7 C7          0.8712    7.0904   -1.3241 C.ar      1 UNK         0.0000 
      8 C8          1.5630    6.1545   -0.3805 C.3       1 UNK         0.0000 
      9 C9          1.0462    4.7177   -0.5385 C.3       1 UNK         0.0000 
     10 N10         1.6222    3.8341    0.4611 N.3       1 UNK         0.0000 
     11 O11         2.5192    4.2721    1.3784 O.3       1 UNK         0.0000 
     12 C12         2.9587    3.0997    2.0480 C.3       1 UNK         0.0000 
     13 H13         3.1559    3.2953    3.1255 H         1 UNK         0.0000 
     14 C14         4.2573    2.6155    1.3965 C.3       1 UNK         0.0000 
     15 C15         1.8355    2.0773    1.9148 C.3       1 UNK         0.0000 
     16 H16         1.0671    2.3050    2.6832 H         1 UNK         0.0000 
     17 C17         1.2096    2.5669    0.6391 C.3       1 UNK         0.0000 
     18 O18         0.2661    2.0646    0.0000 O.co2     1 UNK         0.0000 
     19 N19         2.2762    0.6869    2.1236 N.am      1 UNK         0.0000 
     20 C20         2.2733   -0.2911    1.1741 C.2       1 UNK         0.0000 
     21 O21         2.0800    0.0000    0.0000 O.co2     1 UNK         0.0000 
     22 C22         2.1364   -1.7217    1.5638 C.ar      1 UNK         0.0000 
     23 C23         1.1626   -2.5661    0.9218 C.ar      1 UNK         0.0000 
     24 O24         0.2680   -2.0646    0.0000 O.co2     1 UNK         0.0000 
     25 C25         1.0820   -3.9221    1.3010 C.ar      1 UNK         0.0000 
     26 O26         0.1974   -4.7425    0.6945 O.3       1 UNK         0.0000 
     27 C27         1.9111   -4.4182    2.3172 C.ar      1 UNK         0.0000 
     28 C28         2.8041   -3.5757    2.9782 C.ar      1 UNK         0.0000 
     29 C29         2.9126   -2.2363    2.6101 C.ar      1 UNK         0.0000 
     30 H30         1.4204    6.3338   -3.3185 H         1 UNK         0.0000 
     31 H31        -0.9581    9.5728   -2.1144 H         1 UNK         0.0000 
     32 H32         1.3571    6.4945    0.6584 H         1 UNK         0.0000 
     33 H33         2.6598    6.1898   -0.5546 H         1 UNK         0.0000 
     34 H34        -0.0581    4.7354   -0.3994 H         1 UNK         0.0000 
     35 H35         1.2725    4.3305   -1.5556 H         1 UNK         0.0000 
     36 H36         4.6181    1.6950    1.9037 H         1 UNK         0.0000 
     37 H37         4.0950    2.3944    0.3204 H         1 UNK         0.0000 
     38 H38         5.0382    3.3948    1.5000 H         1 UNK         0.0000 
     39 H39         2.3761    0.4105    3.1125 H         1 UNK         0.0000 
     40 H40         0.1253   -5.6821    0.9176 H         1 UNK         0.0000 
     41 H41         1.8490   -5.4584    2.6127 H         1 UNK         0.0000 
     42 H42         3.4209   -3.9634    3.7784 H         1 UNK         0.0000 
     43 H43         3.6185   -1.6033    3.1320 H         1 UNK         0.0000 
     44 C44        -0.8936   -2.6948    7.0505 C.ar      1 UNK         0.0000 
     45 N45        -0.1398   -3.1705    8.0621 N.2       1 UNK         0.0000 
     46 C46         0.3207   -2.0729    8.6979 C.ar      1 UNK         0.0000 
     47 N47        -0.1088   -0.9324    8.1285 N.pl3     1 UNK         0.0000 
     48 H48         0.1082    0.0429    8.4295 H         1 UNK         0.0000 
     49 C49        -0.8676   -1.3227    7.0909 C.ar      1 UNK         0.0000 
     50 C50        -1.5637   -0.3820    6.1589 C.3       1 UNK         0.0000 
     51 C51        -1.0475   -0.5378    4.7170 C.3       1 UNK         0.0000 
     52 N52        -1.6250    0.4604    3.8328 N.am      1 UNK         0.0000 
     53 O53        -2.5223    1.3766    4.2726 O.3       1 UNK         0.0000 
     54 C54        -2.9638    2.0442    3.0991 C.3       1 UNK         0.0000 
     55 H55        -3.1554    3.1250    3.2955 H         1 UNK         0.0000 
     56 C56        -4.2613    1.3975    2.6156 C.3       1 UNK         0.0000 
     57 C57        -1.8379    1.9148    2.0766 C.3       1 UNK         0.0000 
     58 H58        -1.0678    2.6821    2.3043 H         1 UNK         0.0000 
     59 C59        -1.2095    0.6408    2.5659 C.2       1 UNK         0.0000 
     60 O60        -0.2661    0.0000    2.0646 O.co2     1 UNK         0.0000 
     61 N61        -2.2779    2.1242    0.6859 N.am      1 UNK         0.0000 
     62 C62        -2.2736    1.1739   -0.2917 C.2       1 UNK         0.0000 
     63 O63        -2.0800    0.0000    0.0000 O.co2     1 UNK         0.0000 
     64 C64        -2.1366    1.5638   -1.7226 C.ar      1 UNK         0.0000 
     65 C65        -1.1629    0.9209   -2.5673 C.ar      1 UNK         0.0000 
     66 O66        -0.2680    0.0000   -2.0646 O.co2     1 UNK         0.0000 
     67 C67        -1.0815    1.3000   -3.9235 C.ar      1 UNK         0.0000 
     68 O68        -0.1957    0.6934   -4.7418 O.3       1 UNK         0.0000 
     69 C69        -1.9099    2.3164   -4.4199 C.ar      1 UNK         0.0000 
     70 C70        -2.8033    2.9782   -3.5765 C.ar      1 UNK         0.0000 
     71 C71        -2.9118    2.6109   -2.2366 C.ar      1 UNK         0.0000 
     72 H72        -1.4156   -3.3138    6.3333 H         1 UNK         0.0000 
     73 H73         0.9665   -2.1048    9.5661 H         1 UNK         0.0000 
     74 H74        -1.3604    0.6623    6.4935 H         1 UNK         0.0000 
     75 H75        -2.6620   -0.5519    6.1903 H         1 UNK         0.0000 
     76 H76         0.0576   -0.3957    4.7365 H         1 UNK         0.0000 
     77 H77        -1.2710   -1.5553    4.3336 H         1 UNK         0.0000 
     78 H78        -4.6187    1.9073    1.6940 H         1 UNK         0.0000 
     79 H79        -4.0978    0.3228    2.3942 H         1 UNK         0.0000 
     80 H80        -5.0395    1.5039    3.3948 H         1 UNK         0.0000 
     81 H81        -2.3765    3.1129    0.4093 H         1 UNK         0.0000 
     82 H82        -0.1213    0.9165   -5.6806 H         1 UNK         0.0000 
     83 H83        -1.8464    2.6123   -5.4596 H         1 UNK         0.0000 
     84 H84        -3.4186    3.7793   -3.9647 H         1 UNK         0.0000 
     85 H85        -3.6165    3.1334   -1.6037 H         1 UNK         0.0000 
     86 H86         1.9806    2.1382   -0.0011 H         1 UNK         0.0000 
@<TRIPOS>BOND
     1    1   18 nc   
     2    1   21 nc   
     3    1   24 nc   
     4    1   60 nc   
     5    1   63 nc   
     6    1   66 nc   
     7    2    7 ar   
     8    2    3 ar   
     9    2   30 1    
    10    3    4 ar   
    11    4    5 ar   
    12    4   31 1    
    13    5    6 1    
    14    5    7 ar   
    15    7    8 1    
    16    8   32 1    
    17    8    9 1    
    18    8   33 1    
    19    9   34 1    
    20    9   10 1    
    21    9   35 1    
    22   10   17 1    
    23   10   11 1    
    24   11   12 1    
    25   12   13 1    
    26   12   14 1    
    27   12   15 1    
    28   14   38 1    
    29   14   36 1    
    30   14   37 1    
    31   15   19 1    
    32   15   16 1    
    33   15   17 1    
    34   17   18 1    
    35   17   86 1    
    36   19   39 1    
    37   19   20 am   BACKBONE|DICT|INTERRES
    38   20   22 1    
    39   20   21 2    
    40   22   29 ar   
    41   22   23 ar   
    42   23   25 ar   
    43   23   24 1    
    44   25   27 ar   
    45   25   26 1    
    46   26   40 1    
    47   27   41 1    
    48   27   28 ar   
    49   28   42 1    
    50   28   29 ar   
    51   29   43 1    
    52   44   49 ar   
    53   44   45 ar   
    54   44   72 1    
    55   45   46 ar   
    56   46   73 1    
    57   46   47 ar   
    58   47   48 1    
    59   47   49 ar   
    60   49   50 1    
    61   50   75 1    
    62   50   74 1    
    63   50   51 1    
    64   51   76 1    
    65   51   52 1    
    66   51   77 1    
    67   52   53 1    
    68   52   59 am   BACKBONE|DICT|INTERRES
    69   53   54 1    
    70   54   55 1    
    71   54   56 1    
    72   54   57 1    
    73   56   80 1    
    74   56   78 1    
    75   56   79 1    
    76   57   58 1    
    77   57   59 1    
    78   57   61 1    
    79   59   60 2    
    80   61   62 am   BACKBONE|DICT|INTERRES
    81   61   81 1    
    82   62   64 1    
    83   62   63 2    
    84   64   65 ar   
    85   64   71 ar   
    86   65   66 1    
    87   65   67 ar   
    88   67   68 1    
    89   67   69 ar   
    90   68   82 1    
    91   69   70 ar   
    92   69   83 1    
    93   70   71 ar   
    94   70   84 1    
    95   71   85 1    
@<TRIPOS>SUBSTRUCTURE
     1 UNK         1 GROUP             0       ****    0 ROOT    
