@<TRIPOS>MOLECULE
253_c1
154   161    1
SMALL
USER_CHARGES


@<TRIPOS>ATOM
      1 Fe1         4.8124   -0.7008   -1.9303 Fe        1 UNK         0.0000 
      2 C2          4.0499    4.8251   -2.7640 C.ar      1 UNK         0.0000 
      3 C3          5.4279    4.7558   -2.9288 C.ar      1 UNK         0.0000 
      4 C4          6.0439    3.5106   -3.0081 C.ar      1 UNK         0.0000 
      5 C5          5.3218    2.3247   -2.9055 C.ar      1 UNK         0.0000 
      6 O6          6.0204    1.2528   -2.9695 O.co2     1 UNK         0.0000 
      7 C7          3.9057    2.3916   -2.7343 C.ar      1 UNK         0.0000 
      8 O8          3.1965    1.3418   -2.6020 O.co2     1 UNK         0.0000 
      9 C9          3.2659    3.6615   -2.6822 C.ar      1 UNK         0.0000 
     10 C10         1.7422    3.8121   -2.5681 C.2       1 UNK         0.0000 
     11 O11         0.9200    3.2031   -3.2646 O.2       1 UNK         0.0000 
     12 N12         1.3285    4.7969   -1.7447 N.am      1 UNK         0.0000 
     13 C13        -0.0809    5.1912   -1.6331 C.3       1 UNK         0.0000 
     14 H14        -0.6081    4.8998   -2.5429 H         1 UNK         0.0000 
     15 C15        -0.2052    6.7348   -1.5403 C.3       1 UNK         0.0000 
     16 C16         0.1538    7.4690   -2.8440 C.3       1 UNK         0.0000 
     17 C17        -0.2897    8.9369   -2.7978 C.3       1 UNK         0.0000 
     18 N18         0.1269    9.6882   -3.9929 N.pl3     1 UNK         0.0000 
     19 C19        -0.1713   10.9693   -4.2566 C.cat     1 UNK         0.0000 
     20 N20         0.2526   11.5253   -5.3928 N.pl3     1 UNK         0.0000 
     21 N21        -0.8866   11.6945   -3.3906 N.pl3     1 UNK         0.0000 
     22 H22        -1.2286   11.2868   -2.5309 H         1 UNK         0.0000 
     23 H23        -1.1268   12.6645   -3.5439 H         1 UNK         0.0000 
     24 C24        -0.8860    4.5164   -0.4963 C.2       1 UNK         0.0000 
     25 O25        -2.1144    4.4529   -0.6169 O.2       1 UNK         0.0000 
     26 N26        -0.2755    4.1035    0.6284 N.am      1 UNK         0.0000 
     27 C27        -1.0407    3.6113    1.8033 C.3       1 UNK         0.0000 
     28 H28        -1.8650    3.0259    1.4096 H         1 UNK         0.0000 
     29 C29        -1.7032    4.7500    2.6653 C.3       1 UNK         0.0000 
     30 H30        -2.1652    4.3023    3.5461 H         1 UNK         0.0000 
     31 O31        -2.7730    5.3450    1.9452 O.3       1 UNK         0.0000 
     32 C32        -0.7954    5.8813    3.1871 C.3       1 UNK         0.0000 
     33 C33        -0.1072    2.7458    2.6689 C.2       1 UNK         0.0000 
     34 O34         0.8695    3.2339    3.2353 O.2       1 UNK         0.0000 
     35 O35        -0.4644    1.4380    2.9134 O.3       1 UNK         0.0000 
     36 C36        -1.5932    0.7477    2.3784 C.3       1 UNK         0.0000 
     37 H37        -1.7363    1.0444    1.3383 H         1 UNK         0.0000 
     38 C38        -2.8037    1.1813    3.2594 C.3       1 UNK         0.0000 
     39 C39        -1.3166   -0.8045    2.3541 C.3       1 UNK         0.0000 
     40 H40        -0.3486   -0.9926    1.8908 H         1 UNK         0.0000 
     41 N41        -1.4337   -1.4859    3.6720 N.am      1 UNK         0.0000 
     42 C42        -0.5267   -1.6858    4.6425 C.2       1 UNK         0.0000 
     43 O43        -0.8615   -2.2738    5.6692 O.2       1 UNK         0.0000 
     44 C44         0.9333   -1.1557    4.5243 C.3       1 UNK         0.0000 
     45 H45         0.8539   -0.1115    4.2403 H         1 UNK         0.0000 
     46 C46         1.7457   -1.1764    5.8548 C.3       1 UNK         0.0000 
     47 C47         1.3602   -0.1034    6.8868 C.3       1 UNK         0.0000 
     48 C48         2.3226   -0.1016    8.0887 C.3       1 UNK         0.0000 
     49 N49         1.9043    0.8337    9.1506 N.pl3     1 UNK         0.0000 
     50 C50         1.3945    0.5369   10.3545 C.cat     1 UNK         0.0000 
     51 N51         1.2181   -0.7333   10.7277 N.pl3     1 UNK         0.0000 
     52 N52         1.0607    1.5273   11.1841 N.pl3     1 UNK         0.0000 
     53 H53         1.1988    2.5006   10.9439 H         1 UNK         0.0000 
     54 H54         0.6586    1.3569   12.0961 H         1 UNK         0.0000 
     55 N55         1.7510   -1.8828    3.5546 N.am      1 UNK         0.0000 
     56 C56         2.3936   -1.2837    2.5309 C.2       1 UNK         0.0000 
     57 O57         2.0164   -0.1588    2.1859 O.2       1 UNK         0.0000 
     58 C58         3.6106   -2.0366    1.9584 C.ar      1 UNK         0.0000 
     59 C59         4.5446   -1.4327    1.0599 C.ar      1 UNK         0.0000 
     60 O60         4.3331   -0.2578    0.5903 O.co2     1 UNK         0.0000 
     61 C61         5.6893   -2.1588    0.6400 C.ar      1 UNK         0.0000 
     62 O62         6.5694   -1.7132   -0.1864 O.co2     1 UNK         0.0000 
     63 C63         5.8825   -3.4604    1.0963 C.ar      1 UNK         0.0000 
     64 C64         4.9814   -4.0683    1.9645 C.ar      1 UNK         0.0000 
     65 C65         3.8614   -3.3632    2.3907 C.ar      1 UNK         0.0000 
     66 C66        -2.3676   -1.4799    1.4635 C.2       1 UNK         0.0000 
     67 O67        -3.4936   -1.0057    1.3002 O.2       1 UNK         0.0000 
     68 O68        -1.9963   -2.6757    0.9181 O.3       1 UNK         0.0000 
     69 C69        -2.9528   -3.3916    0.1164 C.3       1 UNK         0.0000 
     70 H70        -3.6015   -2.6667   -0.3820 H         1 UNK         0.0000 
     71 C71        -3.8410   -4.2380    1.0612 C.3       1 UNK         0.0000 
     72 C72        -2.2825   -4.2130   -1.0189 C.3       1 UNK         0.0000 
     73 H73        -1.6090   -3.5366   -1.5459 H         1 UNK         0.0000 
     74 C74        -3.3883   -4.5787   -2.0496 C.2       1 UNK         0.0000 
     75 O75        -3.6645   -5.9048   -2.1104 O.3       1 UNK         0.0000 
     76 O76        -4.0036   -3.7645   -2.6942 O.2       1 UNK         0.0000 
     77 N77        -1.4776   -5.3427   -0.5095 N.am      1 UNK         0.0000 
     78 C78        -0.7237   -6.2230   -1.1909 C.2       1 UNK         0.0000 
     79 O79        -0.1922   -7.1597   -0.5937 O.2       1 UNK         0.0000 
     80 C80        -0.5171   -6.0933   -2.7385 C.3       1 UNK         0.0000 
     81 H81        -1.0693   -5.2373   -3.1187 H         1 UNK         0.0000 
     82 C82        -0.9901   -7.3055   -3.5849 C.3       1 UNK         0.0000 
     83 C83        -0.4331   -8.6891   -3.1993 C.3       1 UNK         0.0000 
     84 C84        -0.9966   -9.7828   -4.1069 C.3       1 UNK         0.0000 
     85 N85        -0.4763  -11.1078   -3.7404 N.pl3     1 UNK         0.0000 
     86 C86        -0.8216  -12.2730   -4.3031 C.cat     1 UNK         0.0000 
     87 N87        -0.2787  -13.4069   -3.8580 N.pl3     1 UNK         0.0000 
     88 N88        -1.7049  -12.3049   -5.3049 N.pl3     1 UNK         0.0000 
     89 H89        -1.9928  -13.1611   -5.7612 H         1 UNK         0.0000 
     90 H90        -2.1243  -11.4516   -5.6484 H         1 UNK         0.0000 
     91 N91         0.8622   -5.7812   -3.0879 N.am      1 UNK         0.0000 
     92 C92         1.4559   -4.6282   -2.7415 C.2       1 UNK         0.0000 
     93 O93         0.7992   -3.7973   -2.1015 O.2       1 UNK         0.0000 
     94 C94         2.9175   -4.4589   -3.2117 C.ar      1 UNK         0.0000 
     95 C95         3.5972   -3.2105   -3.1074 C.ar      1 UNK         0.0000 
     96 O96         2.9987   -2.1952   -2.6090 O.co2     1 UNK         0.0000 
     97 C97         4.9508   -3.1125   -3.5431 C.ar      1 UNK         0.0000 
     98 O98         5.6616   -2.0575   -3.4626 O.co2     1 UNK         0.0000 
     99 C99         5.5826   -4.2369   -4.0715 C.ar      1 UNK         0.0000 
    100 C100        4.9245   -5.4572   -4.1897 C.ar      1 UNK         0.0000 
    101 C101        3.6060   -5.5663   -3.7614 C.ar      1 UNK         0.0000 
    102 H102        3.5933    5.7994   -2.7307 H         1 UNK         0.0000 
    103 H103        6.0398    5.6360   -3.0194 H         1 UNK         0.0000 
    104 H104        7.1163    3.4378   -3.1517 H         1 UNK         0.0000 
    105 H105        2.0239    5.1525   -1.1185 H         1 UNK         0.0000 
    106 H106        0.3946    7.1198   -0.7125 H         1 UNK         0.0000 
    107 H107       -1.2453    6.9878   -1.3011 H         1 UNK         0.0000 
    108 H108       -0.4091    6.9754   -3.6386 H         1 UNK         0.0000 
    109 H109        1.2099    7.3590   -3.0972 H         1 UNK         0.0000 
    110 H110        0.0231    9.4162   -1.8690 H         1 UNK         0.0000 
    111 H111       -1.3811    8.9524   -2.8155 H         1 UNK         0.0000 
    112 H112        0.6722    9.1258   -4.6395 H         1 UNK         0.0000 
    113 H113        0.7840   11.0021   -6.0767 H         1 UNK         0.0000 
    114 H114        0.0573   12.4888   -5.6358 H         1 UNK         0.0000 
    115 H115        0.7370    4.0797    0.6840 H         1 UNK         0.0000 
    116 H116       -2.8134    4.9146    1.0722 H         1 UNK         0.0000 
    117 H117       -0.2632    6.3790    2.3780 H         1 UNK         0.0000 
    118 H118       -1.3763    6.6319    3.7235 H         1 UNK         0.0000 
    119 H119       -0.0588    5.5048    3.8974 H         1 UNK         0.0000 
    120 H120       -3.0030    2.2470    3.1932 H         1 UNK         0.0000 
    121 H121       -3.7358    0.7026    2.9707 H         1 UNK         0.0000 
    122 H122       -2.6374    0.9543    4.3123 H         1 UNK         0.0000 
    123 H123       -2.3563   -1.8532    3.8706 H         1 UNK         0.0000 
    124 H124        1.6917   -2.1674    6.3091 H         1 UNK         0.0000 
    125 H125        2.8024   -1.0155    5.6235 H         1 UNK         0.0000 
    126 H126        1.4825    0.8448    6.3583 H         1 UNK         0.0000 
    127 H127        0.3136   -0.1593    7.1903 H         1 UNK         0.0000 
    128 H128        2.6100   -1.0972    8.4295 H         1 UNK         0.0000 
    129 H129        3.2502    0.3447    7.7260 H         1 UNK         0.0000 
    130 H130        2.0075    1.7971    8.8515 H         1 UNK         0.0000 
    131 H131        1.4599   -1.4918   10.1048 H         1 UNK         0.0000 
    132 H132        0.8511   -0.9991   11.6320 H         1 UNK         0.0000 
    133 H133        1.9440   -2.8535    3.7092 H         1 UNK         0.0000 
    134 H134        6.7480   -4.0156    0.7501 H         1 UNK         0.0000 
    135 H135        5.1785   -5.0654    2.3238 H         1 UNK         0.0000 
    136 H136        3.2172   -3.8671    3.0949 H         1 UNK         0.0000 
    137 H137       -3.2550   -4.9527    1.6394 H         1 UNK         0.0000 
    138 H138       -4.3757   -3.5994    1.7640 H         1 UNK         0.0000 
    139 H139       -4.5943   -4.7949    0.5051 H         1 UNK         0.0000 
    140 H140       -1.4303   -5.3929    0.4952 H         1 UNK         0.0000 
    141 H141       -2.0812   -7.3519   -3.5382 H         1 UNK         0.0000 
    142 H142       -0.7491   -7.1076   -4.6321 H         1 UNK         0.0000 
    143 H143        0.6588   -8.6785   -3.2309 H         1 UNK         0.0000 
    144 H144       -0.7223   -8.9236   -2.1752 H         1 UNK         0.0000 
    145 H145       -2.0814   -9.8000   -3.9937 H         1 UNK         0.0000 
    146 H146       -0.7781   -9.5578   -5.1517 H         1 UNK         0.0000 
    147 H147        0.1875  -11.0634   -2.9735 H         1 UNK         0.0000 
    148 H148        0.3938  -13.4167   -3.1017 H         1 UNK         0.0000 
    149 H149       -0.5129  -14.3131   -4.2432 H         1 UNK         0.0000 
    150 H150        1.4452   -6.4500   -3.5380 H         1 UNK         0.0000 
    151 H151        6.6187   -4.1481   -4.3880 H         1 UNK         0.0000 
    152 H152        5.4459   -6.2966   -4.6182 H         1 UNK         0.0000 
    153 H153        3.1422   -6.5324   -3.8792 H         1 UNK         0.0000 
    154 H154       -4.4220   -5.9450   -2.6967 H         1 UNK         0.0000 
@<TRIPOS>BOND
     1    1    6 nc   
     2    1    8 nc   
     3    1   60 nc   
     4    1   62 nc   
     5    1   96 nc   
     6    1   98 nc   
     7    2  102 1    
     8    2    9 ar   
     9    2    3 ar   
    10    3    4 ar   
    11    3  103 1    
    12    4    5 ar   
    13    4  104 1    
    14    5    7 ar   
    15    5    6 1    
    16    7    8 1    
    17    7    9 ar   
    18    9   10 1    
    19   10   12 am   BACKBONE|DICT|INTERRES
    20   10   11 2    
    21   12   13 1    
    22   12  105 1    
    23   13   14 1    
    24   13   15 1    
    25   13   24 1    
    26   15  107 1    
    27   15  106 1    
    28   15   16 1    
    29   16   17 1    
    30   16  108 1    
    31   16  109 1    
    32   17  111 1    
    33   17  110 1    
    34   17   18 1    
    35   18   19 ar   
    36   18  112 1    
    37   19   21 ar   
    38   19   20 ar   
    39   20  113 1    
    40   20  114 1    
    41   21   22 1    
    42   21   23 1    
    43   24   26 am   BACKBONE|DICT|INTERRES
    44   24   25 2    
    45   26  115 1    
    46   26   27 1    
    47   27   28 1    
    48   27   33 1    
    49   27   29 1    
    50   29   32 1    
    51   29   30 1    
    52   29   31 1    
    53   31  116 1    
    54   32  118 1    
    55   32  119 1    
    56   32  117 1    
    57   33   35 1    
    58   33   34 2    
    59   35   36 1    
    60   36   37 1    
    61   36   39 1    
    62   36   38 1    
    63   38  122 1    
    64   38  120 1    
    65   38  121 1    
    66   39   40 1    
    67   39   41 1    
    68   39   66 1    
    69   41  123 1    
    70   41   42 am   BACKBONE|DICT|INTERRES
    71   42   43 2    
    72   42   44 1    
    73   44   45 1    
    74   44   46 1    
    75   44   55 1    
    76   46  124 1    
    77   46   47 1    
    78   46  125 1    
    79   47  127 1    
    80   47   48 1    
    81   47  126 1    
    82   48  128 1    
    83   48   49 1    
    84   48  129 1    
    85   49   50 ar   
    86   49  130 1    
    87   50   51 ar   
    88   50   52 ar   
    89   51  132 1    
    90   51  131 1    
    91   52   54 1    
    92   52   53 1    
    93   55  133 1    
    94   55   56 am   BACKBONE|DICT|INTERRES
    95   56   57 2    
    96   56   58 1    
    97   58   65 ar   
    98   58   59 ar   
    99   59   60 1    
   100   59   61 ar   
   101   61   63 ar   
   102   61   62 1    
   103   63   64 ar   
   104   63  134 1    
   105   64  135 1    
   106   64   65 ar   
   107   65  136 1    
   108   66   67 2    
   109   66   68 1    
   110   68   69 1    
   111   69   70 1    
   112   69   71 1    
   113   69   72 1    
   114   71  137 1    
   115   71  138 1    
   116   71  139 1    
   117   72   73 1    
   118   72   77 1    
   119   72   74 1    
   120   74   75 1    
   121   74   76 2    
   122   75  154 1    
   123   77  140 1    
   124   77   78 am   BACKBONE|DICT|INTERRES
   125   78   79 2    
   126   78   80 1    
   127   80   81 1    
   128   80   82 1    
   129   80   91 1    
   130   82  141 1    
   131   82   83 1    
   132   82  142 1    
   133   83  144 1    
   134   83   84 1    
   135   83  143 1    
   136   84  145 1    
   137   84   85 1    
   138   84  146 1    
   139   85  147 1    
   140   85   86 ar   
   141   86   87 ar   
   142   86   88 ar   
   143   87  148 1    
   144   87  149 1    
   145   88   89 1    
   146   88   90 1    
   147   91   92 am   BACKBONE|DICT|INTERRES
   148   91  150 1    
   149   92   93 2    
   150   92   94 1    
   151   94   95 ar   
   152   94  101 ar   
   153   95   96 1    
   154   95   97 ar   
   155   97   98 1    
   156   97   99 ar   
   157   99  100 ar   
   158   99  151 1    
   159  100  101 ar   
   160  100  152 1    
   161  101  153 1    
@<TRIPOS>SUBSTRUCTURE
     1 UNK         1 GROUP             0       ****    0 ROOT    
