@<TRIPOS>MOLECULE
103_c4
118   123    1
SMALL
USER_CHARGES


@<TRIPOS>ATOM
      1 Fe1         0.2681   -2.5111    0.8857 Fe        1 UNK         0.0000 
      2 O2          0.6247    6.7688    5.0886 O.2       1 UNK         0.0000 
      3 C3          1.0986    6.3555    4.0325 C.2       1 UNK         0.0000 
      4 C4          1.6637    7.3362    3.0022 C.3       1 UNK         0.0000 
      5 C5          0.6531    8.3833    2.4702 C.3       1 UNK         0.0000 
      6 C6         -0.4196    7.8597    1.4766 C.2       1 UNK         0.0000 
      7 O7         -0.8932    6.7339    1.6518 O.2       1 UNK         0.0000 
      8 N8         -0.8642    8.6621    0.4672 N.am      1 UNK         0.0000 
      9 O9         -0.0940    9.7963    0.1300 O.3       1 UNK         0.0000 
     10 C10        -1.9432    8.3591   -0.4844 C.3       1 UNK         0.0000 
     11 C11        -1.4591    7.9701   -1.8975 C.3       1 UNK         0.0000 
     12 C12        -0.7125    6.6275   -1.9985 C.3       1 UNK         0.0000 
     13 C13        -1.6050    5.3945   -1.7587 C.3       1 UNK         0.0000 
     14 C14        -0.8759    4.0830   -2.0857 C.3       1 UNK         0.0000 
     15 N15        -1.7491    2.9126   -2.0000 N.am      1 UNK         0.0000 
     16 C16        -1.5197    1.7676   -2.6543 C.2       1 UNK         0.0000 
     17 O17        -0.5486    1.6064   -3.3896 O.2       1 UNK         0.0000 
     18 C18        -2.5318    0.6379   -2.4456 C.3       1 UNK         0.0000 
     19 C19        -1.9682   -0.7843   -2.7062 C.3       1 UNK         0.0000 
     20 C20        -0.9196   -1.2365   -1.6636 C.2       1 UNK         0.0000 
     21 O21        -1.2379   -1.1413   -0.4683 O.co2     1 UNK         0.0000 
     22 N22         0.2976   -1.7555   -2.0096 N.am      1 UNK         0.0000 
     23 O23         1.2105   -2.2258   -1.1457 O.co2     1 UNK         0.0000 
     24 C24         0.7298   -1.9277   -3.4053 C.3       1 UNK         0.0000 
     25 C25         0.4097   -3.3524   -3.8999 C.3       1 UNK         0.0000 
     26 C26         1.4598   -3.9238   -4.8596 C.3       1 UNK         0.0000 
     27 C27         1.0800   -5.3000   -5.4468 C.3       1 UNK         0.0000 
     28 C28         0.6539   -6.3927   -4.4367 C.3       1 UNK         0.0000 
     29 N29         1.5435   -6.4978   -3.2738 N.am      1 UNK         0.0000 
     30 C30         1.1475   -6.8840   -2.0500 C.2       1 UNK         0.0000 
     31 O31         0.0011   -7.2510   -1.8141 O.2       1 UNK         0.0000 
     32 C32         2.2009   -6.8389   -0.9341 C.3       1 UNK         0.0000 
     33 C33         1.6368   -6.8405    0.5180 C.3       1 UNK         0.0000 
     34 C34         0.9224   -5.5142    0.8612 C.2       1 UNK         0.0000 
     35 O35         1.6195   -4.4983    0.9898 O.co2     1 UNK         0.0000 
     36 N36        -0.4403   -5.4353    0.9721 N.am      1 UNK         0.0000 
     37 O37        -1.1367   -4.2953    1.0779 O.co2     1 UNK         0.0000 
     38 C38        -1.2559   -6.6051    1.3594 C.3       1 UNK         0.0000 
     39 C39        -1.2040   -6.8058    2.8967 C.3       1 UNK         0.0000 
     40 C40        -2.5678   -7.0461    3.5572 C.3       1 UNK         0.0000 
     41 C41        -2.4987   -7.1821    5.0947 C.3       1 UNK         0.0000 
     42 C42        -1.8144   -6.0316    5.8764 C.3       1 UNK         0.0000 
     43 N43        -2.2610   -4.6772    5.5075 N.am      1 UNK         0.0000 
     44 C44        -1.4382   -3.6300    5.2972 C.2       1 UNK         0.0000 
     45 O45        -0.2177   -3.7351    5.3275 O.2       1 UNK         0.0000 
     46 C46        -2.0832   -2.2595    5.0173 C.3       1 UNK         0.0000 
     47 C47        -1.0919   -1.0761    4.7268 C.3       1 UNK         0.0000 
     48 C48        -0.3558   -1.2216    3.3780 C.2       1 UNK         0.0000 
     49 O49        -0.9369   -1.8066    2.4622 O.co2     1 UNK         0.0000 
     50 N50         0.9339   -0.8247    3.1689 N.am      1 UNK         0.0000 
     51 O51         1.6764   -1.2252    2.1252 O.co2     1 UNK         0.0000 
     52 C52         1.5997    0.2376    3.9542 C.3       1 UNK         0.0000 
     53 C53         1.9798    1.4675    3.0803 C.3       1 UNK         0.0000 
     54 C54         0.7751    2.2526    2.5195 C.3       1 UNK         0.0000 
     55 C55        -0.1031    2.9312    3.5947 C.3       1 UNK         0.0000 
     56 C56         0.6326    3.9520    4.4884 C.3       1 UNK         0.0000 
     57 N57         1.1654    5.0601    3.7023 N.am      1 UNK         0.0000 
     58 H58         2.4333    7.8833    3.5486 H         1 UNK         0.0000 
     59 H59         2.2019    6.8532    2.1866 H         1 UNK         0.0000 
     60 H60         0.1905    8.9222    3.2985 H         1 UNK         0.0000 
     61 H61         1.2664    9.1276    1.9653 H         1 UNK         0.0000 
     62 H62        -0.6766   10.5377    0.3156 H         1 UNK         0.0000 
     63 H63        -2.5809    9.2394   -0.5716 H         1 UNK         0.0000 
     64 H64        -2.5873    7.5749   -0.0808 H         1 UNK         0.0000 
     65 H65        -0.8279    8.7700   -2.2883 H         1 UNK         0.0000 
     66 H66        -2.3199    7.9347   -2.5676 H         1 UNK         0.0000 
     67 H67        -0.2807    6.5621   -2.9990 H         1 UNK         0.0000 
     68 H68         0.1328    6.6186   -1.3083 H         1 UNK         0.0000 
     69 H69        -1.9364    5.3772   -0.7192 H         1 UNK         0.0000 
     70 H70        -2.5024    5.4739   -2.3748 H         1 UNK         0.0000 
     71 H71        -0.0085    3.9628   -1.4319 H         1 UNK         0.0000 
     72 H72        -0.4563    4.1629   -3.0934 H         1 UNK         0.0000 
     73 H73        -2.5545    2.9777   -1.3995 H         1 UNK         0.0000 
     74 H74        -3.0213    0.6862   -1.4764 H         1 UNK         0.0000 
     75 H75        -3.3364    0.8170   -3.1562 H         1 UNK         0.0000 
     76 H76        -1.6956   -0.9099   -3.7507 H         1 UNK         0.0000 
     77 H77        -2.8025   -1.4799   -2.6058 H         1 UNK         0.0000 
     78 H78         0.3491   -1.1741   -4.1013 H         1 UNK         0.0000 
     79 H79         1.8117   -1.7654   -3.4491 H         1 UNK         0.0000 
     80 H80         0.3376   -4.0223   -3.0459 H         1 UNK         0.0000 
     81 H81        -0.5782   -3.3459   -4.3561 H         1 UNK         0.0000 
     82 H82         1.6327   -3.2211   -5.6745 H         1 UNK         0.0000 
     83 H83         2.4109   -4.0113   -4.3286 H         1 UNK         0.0000 
     84 H84         1.9230   -5.6641   -6.0393 H         1 UNK         0.0000 
     85 H85         0.2658   -5.1622   -6.1618 H         1 UNK         0.0000 
     86 H86        -0.3598   -6.1649   -4.0898 H         1 UNK         0.0000 
     87 H87         0.6178   -7.3624   -4.9366 H         1 UNK         0.0000 
     88 H88         2.5052   -6.2361   -3.4051 H         1 UNK         0.0000 
     89 H89         2.9096   -6.0272   -1.0782 H         1 UNK         0.0000 
     90 H90         2.7962   -7.7394   -1.0501 H         1 UNK         0.0000 
     91 H91         1.1059   -7.7647    0.7503 H         1 UNK         0.0000 
     92 H92         2.4957   -6.8900    1.1900 H         1 UNK         0.0000 
     93 H93        -2.2911   -6.4463    1.0384 H         1 UNK         0.0000 
     94 H94        -0.9759   -7.5233    0.8373 H         1 UNK         0.0000 
     95 H95        -0.5087   -7.6092    3.1296 H         1 UNK         0.0000 
     96 H96        -0.7775   -5.9191    3.3607 H         1 UNK         0.0000 
     97 H97        -3.2420   -6.2267    3.3011 H         1 UNK         0.0000 
     98 H98        -3.0060   -7.9499    3.1338 H         1 UNK         0.0000 
     99 H99        -1.9699   -8.1078    5.3343 H         1 UNK         0.0000 
    100 H100       -3.5128   -7.3238    5.4768 H         1 UNK         0.0000 
    101 H101       -2.0048   -6.1645    6.9436 H         1 UNK         0.0000 
    102 H102       -0.7329   -6.1249    5.7412 H         1 UNK         0.0000 
    103 H103       -3.2525   -4.5396    5.4118 H         1 UNK         0.0000 
    104 H104       -2.8460   -2.3359    4.2469 H         1 UNK         0.0000 
    105 H105       -2.6333   -2.0058    5.9211 H         1 UNK         0.0000 
    106 H106       -0.4390   -0.9095    5.5843 H         1 UNK         0.0000 
    107 H107       -1.6769   -0.1596    4.6462 H         1 UNK         0.0000 
    108 H108        1.0141    0.5900    4.8106 H         1 UNK         0.0000 
    109 H109        2.5099   -0.1972    4.3756 H         1 UNK         0.0000 
    110 H110        2.6026    1.1496    2.2470 H         1 UNK         0.0000 
    111 H111        2.6228    2.1324    3.6523 H         1 UNK         0.0000 
    112 H112        1.1293    3.0037    1.8100 H         1 UNK         0.0000 
    113 H113        0.1506    1.5830    1.9208 H         1 UNK         0.0000 
    114 H114       -0.9413    3.4315    3.1063 H         1 UNK         0.0000 
    115 H115       -0.5600    2.1688    4.2255 H         1 UNK         0.0000 
    116 H116        1.4808    3.4839    4.9895 H         1 UNK         0.0000 
    117 H117       -0.0303    4.2896    5.2879 H         1 UNK         0.0000 
    118 H118        1.5811    4.8245    2.8161 H         1 UNK         0.0000 
@<TRIPOS>BOND
     1    1   21 nc   
     2    1   23 nc   
     3    1   35 nc   
     4    1   37 nc   
     5    1   49 nc   
     6    1   51 nc   
     7    2    3 2    
     8    3    4 1    
     9    3   57 am   BACKBONE|DICT|INTERRES
    10    4   58 1    
    11    4    5 1    
    12    4   59 1    
    13    5   60 1    
    14    5    6 1    
    15    5   61 1    
    16    6    7 2    
    17    6    8 am   BACKBONE|DICT|INTERRES
    18    8    9 1    
    19    8   10 1    
    20    9   62 1    
    21   10   64 1    
    22   10   11 1    
    23   10   63 1    
    24   11   12 1    
    25   11   65 1    
    26   11   66 1    
    27   12   13 1    
    28   12   68 1    
    29   12   67 1    
    30   13   69 1    
    31   13   14 1    
    32   13   70 1    
    33   14   15 1    
    34   14   71 1    
    35   14   72 1    
    36   15   73 1    
    37   15   16 am   BACKBONE|DICT|INTERRES
    38   16   18 1    
    39   16   17 2    
    40   18   74 1    
    41   18   19 1    
    42   18   75 1    
    43   19   77 1    
    44   19   20 1    
    45   19   76 1    
    46   20   21 2    
    47   20   22 am   BACKBONE|DICT|INTERRES
    48   22   23 1    
    49   22   24 1    
    50   24   79 1    
    51   24   25 1    
    52   24   78 1    
    53   25   80 1    
    54   25   26 1    
    55   25   81 1    
    56   26   83 1    
    57   26   27 1    
    58   26   82 1    
    59   27   28 1    
    60   27   84 1    
    61   27   85 1    
    62   28   86 1    
    63   28   29 1    
    64   28   87 1    
    65   29   30 am   BACKBONE|DICT|INTERRES
    66   29   88 1    
    67   30   31 2    
    68   30   32 1    
    69   32   33 1    
    70   32   89 1    
    71   32   90 1    
    72   33   91 1    
    73   33   34 1    
    74   33   92 1    
    75   34   35 2    
    76   34   36 am   BACKBONE|DICT|INTERRES
    77   36   38 1    
    78   36   37 1    
    79   38   39 1    
    80   38   93 1    
    81   38   94 1    
    82   39   95 1    
    83   39   96 1    
    84   39   40 1    
    85   40   41 1    
    86   40   97 1    
    87   40   98 1    
    88   41   99 1    
    89   41  100 1    
    90   41   42 1    
    91   42  101 1    
    92   42   43 1    
    93   42  102 1    
    94   43  103 1    
    95   43   44 am   BACKBONE|DICT|INTERRES
    96   44   45 2    
    97   44   46 1    
    98   46  105 1    
    99   46   47 1    
   100   46  104 1    
   101   47  106 1    
   102   47   48 1    
   103   47  107 1    
   104   48   49 2    
   105   48   50 am   BACKBONE|DICT|INTERRES
   106   50   52 1    
   107   50   51 1    
   108   52  109 1    
   109   52  108 1    
   110   52   53 1    
   111   53  111 1    
   112   53   54 1    
   113   53  110 1    
   114   54   55 1    
   115   54  112 1    
   116   54  113 1    
   117   55  115 1    
   118   55   56 1    
   119   55  114 1    
   120   56  116 1    
   121   56  117 1    
   122   56   57 1    
   123   57  118 1    
@<TRIPOS>SUBSTRUCTURE
     1 UNK         1 GROUP             0       ****    0 ROOT    
