@<TRIPOS>MOLECULE
095_c1
90   94    1
SMALL
USER_CHARGES


@<TRIPOS>ATOM
      1 O1         -4.9377   -6.7184    9.9082 O.co2     1 UNK         0.0000 
      2 C2         -6.0849   -7.0219   10.3034 C.2       1 UNK         0.0000 
      3 C3         -7.1339   -7.3679    9.2449 C.3       1 UNK         0.0000 
      4 N4         -6.2719   -7.0619   11.6598 N.am      1 UNK         0.0000 
      5 O5         -5.2319   -7.1040   12.5136 O.co2     1 UNK         0.0000 
      6 C6         -7.5652   -7.0815   12.4134 C.3       1 UNK         0.0000 
      7 C7         -8.9009   -6.5129   11.8323 C.3       1 UNK         0.0000 
      8 C8         -9.3254   -5.1122   12.3334 C.3       1 UNK         0.0000 
      9 C9         -8.2345   -4.1056   11.9310 C.3       1 UNK         0.0000 
     10 C10        -8.4425   -2.5925   12.1898 C.3       1 UNK         0.0000 
     11 N11        -7.1953   -1.8829   11.8607 N.am      1 UNK         0.0000 
     12 C12        -6.7936   -1.8339   10.5928 C.2       1 UNK         0.0000 
     13 O13        -7.4202   -1.2476    9.7259 O.2       1 UNK         0.0000 
     14 C14        -5.6593   -2.7826   10.1905 C.3       1 UNK         0.0000 
     15 C15        -4.2944   -2.6047   10.9083 C.3       1 UNK         0.0000 
     16 C16        -3.6036   -3.9661   11.0044 C.2       1 UNK         0.0000 
     17 O17        -4.0266   -4.7754   11.8323 O.co2     1 UNK         0.0000 
     18 N18        -2.6709   -4.4237   10.1187 N.am      1 UNK         0.0000 
     19 O19        -2.2367   -5.6994   10.1404 O.co2     1 UNK         0.0000 
     20 C20        -1.9163   -3.5167    9.2183 C.3       1 UNK         0.0000 
     21 C21        -0.9660   -2.5435    9.9782 C.3       1 UNK         0.0000 
     22 C22        -0.0440   -3.2266   11.0079 C.3       1 UNK         0.0000 
     23 C23         1.0343   -4.1483   10.3817 C.3       1 UNK         0.0000 
     24 C24         2.0344   -4.7649   11.3940 C.3       1 UNK         0.0000 
     25 N25         1.4478   -5.7540   12.3200 N.am      1 UNK         0.0000 
     26 C26         0.7432   -5.4922   13.4246 C.2       1 UNK         0.0000 
     27 O27         0.5154   -4.3507   13.8182 O.2       1 UNK         0.0000 
     28 C28         0.2524   -6.6782   14.2703 C.3       1 UNK         0.0000 
     29 C29        -0.2604   -7.9545   13.5235 C.3       1 UNK         0.0000 
     30 C30        -1.5750   -7.8052   12.7288 C.2       1 UNK         0.0000 
     31 O31        -2.2185   -6.7508   12.8148 O.co2     1 UNK         0.0000 
     32 N32        -2.0432   -8.7552   11.8421 N.am      1 UNK         0.0000 
     33 O33        -3.0372   -8.5099   10.9878 O.co2     1 UNK         0.0000 
     34 C34        -1.6462  -10.1706   11.7436 C.3       1 UNK         0.0000 
     35 C35        -0.7579  -10.8640   12.8005 C.3       1 UNK         0.0000 
     36 C36        -0.7548  -12.3612   12.4884 C.3       1 UNK         0.0000 
     37 C37         0.0392  -13.2237   13.4716 C.3       1 UNK         0.0000 
     38 C38         1.5801  -13.0690   13.3684 C.3       1 UNK         0.0000 
     39 N39         2.2839  -14.1167   14.1146 N.am      1 UNK         0.0000 
     40 C40         2.2835  -15.4156   13.7936 C.2       1 UNK         0.0000 
     41 O41         1.7132  -15.8691   12.8076 O.2       1 UNK         0.0000 
     42 C42         3.0396  -16.3774   14.7083 C.3       1 UNK         0.0000 
     43 H43        -6.6679   -7.9859    8.4746 H         1 UNK         0.0000 
     44 H44        -7.4795   -6.4497    8.7697 H         1 UNK         0.0000 
     45 H45        -7.9926   -7.9330    9.6115 H         1 UNK         0.0000 
     46 H46        -7.3984   -6.5734   13.3729 H         1 UNK         0.0000 
     47 H47        -7.7310   -8.1213   12.6925 H         1 UNK         0.0000 
     48 H48        -9.6878   -7.2321   12.0334 H         1 UNK         0.0000 
     49 H49        -8.8628   -6.4216   10.7566 H         1 UNK         0.0000 
     50 H50       -10.2685   -4.8382   11.8549 H         1 UNK         0.0000 
     51 H51        -9.5033   -5.0961   13.4140 H         1 UNK         0.0000 
     52 H52        -8.1158   -4.2376   10.8552 H         1 UNK         0.0000 
     53 H53        -7.2928   -4.4067   12.3959 H         1 UNK         0.0000 
     54 H54        -8.7274   -2.4111   13.2307 H         1 UNK         0.0000 
     55 H55        -9.2903   -2.2030   11.6087 H         1 UNK         0.0000 
     56 H56        -6.4556   -2.0221   12.5293 H         1 UNK         0.0000 
     57 H57        -5.5185   -2.6904    9.1173 H         1 UNK         0.0000 
     58 H58        -6.0509   -3.7871   10.3348 H         1 UNK         0.0000 
     59 H59        -4.3906   -2.2237   11.9301 H         1 UNK         0.0000 
     60 H60        -3.6743   -1.8839   10.3863 H         1 UNK         0.0000 
     61 H61        -1.2913   -4.1204    8.5543 H         1 UNK         0.0000 
     62 H62        -2.5856   -2.9776    8.5374 H         1 UNK         0.0000 
     63 H63        -1.5504   -1.8051   10.5189 H         1 UNK         0.0000 
     64 H64        -0.3833   -1.9622    9.2665 H         1 UNK         0.0000 
     65 H65        -0.6690   -3.8257   11.6803 H         1 UNK         0.0000 
     66 H66         0.4177   -2.4779   11.6602 H         1 UNK         0.0000 
     67 H67         1.6007   -3.5685    9.6492 H         1 UNK         0.0000 
     68 H68         0.5496   -4.9469    9.8128 H         1 UNK         0.0000 
     69 H69         2.8706   -5.2207   10.8580 H         1 UNK         0.0000 
     70 H70         2.4742   -3.9584   11.9932 H         1 UNK         0.0000 
     71 H71         1.6979   -6.7173   12.1655 H         1 UNK         0.0000 
     72 H72        -0.4704   -6.3576   15.0197 H         1 UNK         0.0000 
     73 H73         1.1154   -6.9637   14.8598 H         1 UNK         0.0000 
     74 H74        -0.5047   -8.6562   14.3166 H         1 UNK         0.0000 
     75 H75         0.5365   -8.4419   12.9559 H         1 UNK         0.0000 
     76 H76        -2.5824  -10.7494   11.7554 H         1 UNK         0.0000 
     77 H77        -1.2156  -10.3458   10.7483 H         1 UNK         0.0000 
     78 H78         0.2659  -10.5030   12.7412 H         1 UNK         0.0000 
     79 H79        -1.1461  -10.6926   13.8070 H         1 UNK         0.0000 
     80 H80        -0.3908  -12.5241   11.4664 H         1 UNK         0.0000 
     81 H81        -1.7848  -12.7284   12.4867 H         1 UNK         0.0000 
     82 H82        -0.2384  -14.2580   13.2460 H         1 UNK         0.0000 
     83 H83        -0.2957  -13.0403   14.4985 H         1 UNK         0.0000 
     84 H84         1.8920  -13.1060   12.3170 H         1 UNK         0.0000 
     85 H85         1.9000  -12.0761   13.7026 H         1 UNK         0.0000 
     86 H86         2.8098  -13.8403   14.9225 H         1 UNK         0.0000 
     87 H87         3.5419  -15.8802   15.5361 H         1 UNK         0.0000 
     88 H88         3.7795  -16.9152   14.1162 H         1 UNK         0.0000 
     89 H89         2.3378  -17.1064   15.1120 H         1 UNK         0.0000 
     90 Fe90       -3.6034   -6.6192   11.3529 Fe        1 UNK         0.0000 
@<TRIPOS>BOND
     1    1    2 2    
     2    1   90 nc   
     3    2    3 1    
     4    2    4 am   BACKBONE|DICT|INTERRES
     5    3   43 1    
     6    3   44 1    
     7    3   45 1    
     8    4    5 1    
     9    4    6 1    
    10    5   90 nc   
    11    6    7 1    
    12    6   46 1    
    13    6   47 1    
    14    7    8 1    
    15    7   48 1    
    16    7   49 1    
    17    8    9 1    
    18    8   50 1    
    19    8   51 1    
    20    9   10 1    
    21    9   52 1    
    22    9   53 1    
    23   10   11 1    
    24   10   54 1    
    25   10   55 1    
    26   11   12 am   BACKBONE|DICT|INTERRES
    27   11   56 1    
    28   12   13 2    
    29   12   14 1    
    30   14   15 1    
    31   14   57 1    
    32   14   58 1    
    33   15   16 1    
    34   15   59 1    
    35   15   60 1    
    36   16   17 2    
    37   16   18 am   BACKBONE|DICT|INTERRES
    38   17   90 nc   
    39   18   19 1    
    40   18   20 1    
    41   19   90 nc   
    42   20   21 1    
    43   20   61 1    
    44   20   62 1    
    45   21   22 1    
    46   21   63 1    
    47   21   64 1    
    48   22   23 1    
    49   22   65 1    
    50   22   66 1    
    51   23   24 1    
    52   23   67 1    
    53   23   68 1    
    54   24   25 1    
    55   24   69 1    
    56   24   70 1    
    57   25   26 am   BACKBONE|DICT|INTERRES
    58   25   71 1    
    59   26   27 2    
    60   26   28 1    
    61   28   29 1    
    62   28   72 1    
    63   28   73 1    
    64   29   30 1    
    65   29   74 1    
    66   29   75 1    
    67   30   31 2    
    68   30   32 am   BACKBONE|DICT|INTERRES
    69   31   90 nc   
    70   32   33 1    
    71   32   34 1    
    72   33   90 nc   
    73   34   35 1    
    74   34   76 1    
    75   34   77 1    
    76   35   36 1    
    77   35   78 1    
    78   35   79 1    
    79   36   37 1    
    80   36   80 1    
    81   36   81 1    
    82   37   38 1    
    83   37   82 1    
    84   37   83 1    
    85   38   39 1    
    86   38   84 1    
    87   38   85 1    
    88   39   40 am   BACKBONE|DICT|INTERRES
    89   39   86 1    
    90   40   41 2    
    91   40   42 1    
    92   42   87 1    
    93   42   88 1    
    94   42   89 1    
@<TRIPOS>SUBSTRUCTURE
     1 UNK         1 GROUP             0       ****    0 ROOT    
