@<TRIPOS>MOLECULE
206_c1
103   109    1
SMALL
USER_CHARGES


@<TRIPOS>ATOM
      1 Fe1        -0.5163    0.7456   -2.0957 Fe        1 UNK         0.0000 
      2 C2         -1.4285   -4.2366   -3.7753 C.ar      1 UNK         0.0000 
      3 C3         -1.9294   -2.9590   -3.8690 C.ar      1 UNK         0.0000 
      4 C4         -1.1355   -1.8748   -3.5471 C.ar      1 UNK         0.0000 
      5 O5         -1.7088   -0.7590   -3.7242 O.co2     1 UNK         0.0000 
      6 C6          0.1906   -2.0558   -3.0792 C.ar      1 UNK         0.0000 
      7 O7          0.9079   -1.0582   -2.7595 O.co2     1 UNK         0.0000 
      8 C8          0.7216   -3.3618   -2.9376 C.ar      1 UNK         0.0000 
      9 S9          2.4281   -3.6477   -2.2536 S.3       1 UNK         0.0000 
     10 O10         2.3942   -4.7695   -1.2979 O.2       1 UNK         0.0000 
     11 O11         3.1927   -2.4398   -1.9449 O.2       1 UNK         0.0000 
     12 O12         3.1465   -4.1793   -3.6285 O.3       1 UNK         0.0000 
     13 C13        -0.1102   -4.4628   -3.3161 C.ar      1 UNK         0.0000 
     14 C14         0.3336   -5.9004   -3.2406 C.2       1 UNK         0.0000 
     15 O15         1.4412   -6.3258   -3.5613 O.2       1 UNK         0.0000 
     16 N16        -0.6210   -6.7293   -2.8022 N.am      1 UNK         0.0000 
     17 C17        -0.4937   -8.1735   -2.6707 C.3       1 UNK         0.0000 
     18 C18        -0.3666   -8.5712   -1.1967 C.3       1 UNK         0.0000 
     19 C19         0.8755   -7.9910   -0.4914 C.3       1 UNK         0.0000 
     20 N20         0.7076   -8.2456    1.0151 N.4       1 UNK         0.0000 
     21 H21         0.0016   -7.6107    1.3632 H         1 UNK         0.0000 
     22 H22         0.3522   -9.1834    1.1252 H         1 UNK         0.0000 
     23 C23         1.9691   -8.1030    1.8872 C.3       1 UNK         0.0000 
     24 C24         2.5406   -6.6798    1.8490 C.3       1 UNK         0.0000 
     25 C25         1.5134   -5.5792    2.1720 C.3       1 UNK         0.0000 
     26 C26         2.1497   -4.1867    2.3412 C.3       1 UNK         0.0000 
     27 N27         1.1431   -3.1475    2.1590 N.am      1 UNK         0.0000 
     28 C28         1.2594   -2.0867    1.3486 C.2       1 UNK         0.0000 
     29 O29         2.3349   -1.7974    0.8383 O.2       1 UNK         0.0000 
     30 C30        -0.0738   -1.4027    1.0037 C.3       1 UNK         0.0000 
     31 C31        -0.3070    0.1275    1.2664 C.3       1 UNK         0.0000 
     32 O32         0.4766    0.9247    0.3897 O.co2     1 UNK         0.0000 
     33 C33        -1.8497    0.3122    0.9343 C.2       1 UNK         0.0000 
     34 O34        -2.0936    0.5091   -0.2903 O.co2     1 UNK         0.0000 
     35 O35        -2.6942    0.0461    1.8252 O.co2     1 UNK         0.0000 
     36 C36        -0.0303    0.5054    2.7719 C.3       1 UNK         0.0000 
     37 C37        -0.1225    2.0036    3.1517 C.2       1 UNK         0.0000 
     38 O38        -1.0675    2.4686    3.7956 O.2       1 UNK         0.0000 
     39 N39         0.9296    2.7609    2.8084 N.am      1 UNK         0.0000 
     40 C40         1.0726    4.1889    3.0628 C.3       1 UNK         0.0000 
     41 C41         1.3001    4.9717    1.7640 C.3       1 UNK         0.0000 
     42 C42         1.1981    6.4799    1.9856 C.3       1 UNK         0.0000 
     43 N43         1.4554    7.2097    0.6576 N.4       1 UNK         0.0000 
     44 H44         0.7426    6.9228   -0.0036 H         1 UNK         0.0000 
     45 H45         2.3272    6.8914    0.2443 H         1 UNK         0.0000 
     46 C46         1.4343    8.7472    0.8086 C.3       1 UNK         0.0000 
     47 C47         1.6538    9.4498   -0.5432 C.3       1 UNK         0.0000 
     48 C48         0.4677    9.3848   -1.5286 C.3       1 UNK         0.0000 
     49 N49         0.0732    8.0185   -1.8429 N.am      1 UNK         0.0000 
     50 C50         0.8243    7.1654   -2.5501 C.2       1 UNK         0.0000 
     51 O51         1.9172    7.5111   -2.9804 O.2       1 UNK         0.0000 
     52 C52         0.2470    5.7793   -2.6453 C.ar      1 UNK         0.0000 
     53 C53         1.0446    4.5930   -2.6885 C.ar      1 UNK         0.0000 
     54 S54         2.9080    4.6302   -2.6451 S.3       1 UNK         0.0000 
     55 O55         3.4381    5.4204   -3.7660 O.2       1 UNK         0.0000 
     56 O56         3.5578    3.3800   -2.2742 O.2       1 UNK         0.0000 
     57 O57         3.1287    5.5161   -1.2713 O.3       1 UNK         0.0000 
     58 C58         0.3655    3.3522   -2.7533 C.ar      1 UNK         0.0000 
     59 O59         1.0364    2.2781   -2.8094 O.co2     1 UNK         0.0000 
     60 C60        -1.0455    3.3073   -2.7426 C.ar      1 UNK         0.0000 
     61 O61        -1.7307    2.2478   -2.7948 O.co2     1 UNK         0.0000 
     62 C62        -1.7904    4.4644   -2.6962 C.ar      1 UNK         0.0000 
     63 C63        -1.1658    5.6858   -2.6717 C.ar      1 UNK         0.0000 
     64 H64        -2.0762   -5.0389   -4.0916 H         1 UNK         0.0000 
     65 H65        -2.9450   -2.8034   -4.2116 H         1 UNK         0.0000 
     66 H66        -1.5212   -6.2889   -2.6601 H         1 UNK         0.0000 
     67 H67         0.3842   -8.5200   -3.2258 H         1 UNK         0.0000 
     68 H68        -1.3599   -8.6423   -3.1437 H         1 UNK         0.0000 
     69 H69        -1.2805   -8.2731   -0.6799 H         1 UNK         0.0000 
     70 H70        -0.3300   -9.6584   -1.1588 H         1 UNK         0.0000 
     71 H71         1.8010   -8.4729   -0.8147 H         1 UNK         0.0000 
     72 H72         0.9703   -6.9071   -0.5914 H         1 UNK         0.0000 
     73 H73         2.6797   -8.8550    1.5384 H         1 UNK         0.0000 
     74 H74         1.6338   -8.3691    2.8920 H         1 UNK         0.0000 
     75 H75         2.9899   -6.4823    0.8728 H         1 UNK         0.0000 
     76 H76         3.3639   -6.6270    2.5644 H         1 UNK         0.0000 
     77 H77         0.7836   -5.5232    1.3618 H         1 UNK         0.0000 
     78 H78         0.9552   -5.8210    3.0785 H         1 UNK         0.0000 
     79 H79         2.9394   -4.0797    1.5885 H         1 UNK         0.0000 
     80 H80         2.6603   -4.0891    3.3026 H         1 UNK         0.0000 
     81 H81         0.3021   -3.1644    2.7082 H         1 UNK         0.0000 
     82 H82        -0.2363   -1.6159   -0.0528 H         1 UNK         0.0000 
     83 H83        -0.8607   -1.9660    1.5108 H         1 UNK         0.0000 
     84 H84         0.9858    0.1970    3.0039 H         1 UNK         0.0000 
     85 H85        -0.6724   -0.0633    3.4404 H         1 UNK         0.0000 
     86 H86         1.4760    2.3030    2.0779 H         1 UNK         0.0000 
     87 H87         0.1798    4.5825    3.5583 H         1 UNK         0.0000 
     88 H88         1.8780    4.3644    3.7786 H         1 UNK         0.0000 
     89 H89         0.5613    4.6506    1.0247 H         1 UNK         0.0000 
     90 H90         2.2795    4.7131    1.3597 H         1 UNK         0.0000 
     91 H91         0.1965    6.7767    2.3090 H         1 UNK         0.0000 
     92 H92         1.9425    6.8476    2.6963 H         1 UNK         0.0000 
     93 H93         0.4721    9.0106    1.2542 H         1 UNK         0.0000 
     94 H94         2.2388    8.9824    1.5081 H         1 UNK         0.0000 
     95 H95         1.8680   10.5009   -0.3619 H         1 UNK         0.0000 
     96 H96         2.5532    9.0614   -1.0248 H         1 UNK         0.0000 
     97 H97        -0.4108    9.8676   -1.0991 H         1 UNK         0.0000 
     98 H98         0.6999    9.9104   -2.4600 H         1 UNK         0.0000 
     99 H99        -0.8971    7.7435   -1.7233 H         1 UNK         0.0000 
    100 H100       -2.8740    4.4127   -2.7105 H         1 UNK         0.0000 
    101 H101       -1.8110    6.5520   -2.6975 H         1 UNK         0.0000 
    102 H102        3.3662   -3.3510   -4.0961 H         1 UNK         0.0000 
    103 H103        3.6899    4.8796   -0.7805 H         1 UNK         0.0000 
@<TRIPOS>BOND
     1    1    5 nc   
     2    1    7 nc   
     3    1   32 nc   
     4    1   34 nc   
     5    1   59 nc   
     6    1   61 nc   
     7    2   13 ar   
     8    2    3 ar   
     9    2   64 1    
    10    3    4 ar   
    11    3   65 1    
    12    4    6 ar   
    13    4    5 1    
    14    6    8 ar   
    15    6    7 1    
    16    8    9 1    
    17    8   13 ar   
    18    9   11 2    
    19    9   10 2    
    20    9   12 1    
    21   12  102 1    
    22   13   14 1    
    23   14   16 am   BACKBONE|DICT|INTERRES
    24   14   15 2    
    25   16   17 1    
    26   16   66 1    
    27   17   18 1    
    28   17   67 1    
    29   17   68 1    
    30   18   70 1    
    31   18   69 1    
    32   18   19 1    
    33   19   20 1    
    34   19   71 1    
    35   19   72 1    
    36   20   22 1    
    37   20   21 1    
    38   20   23 1    
    39   23   74 1    
    40   23   24 1    
    41   23   73 1    
    42   24   25 1    
    43   24   76 1    
    44   24   75 1    
    45   25   26 1    
    46   25   78 1    
    47   25   77 1    
    48   26   80 1    
    49   26   27 1    
    50   26   79 1    
    51   27   81 1    
    52   27   28 am   BACKBONE|DICT|INTERRES
    53   28   29 2    
    54   28   30 1    
    55   30   31 1    
    56   30   83 1    
    57   30   82 1    
    58   31   32 1    
    59   31   36 1    
    60   31   33 1    
    61   33   35 2    
    62   33   34 1    
    63   36   84 1    
    64   36   37 1    
    65   36   85 1    
    66   37   38 2    
    67   37   39 am   BACKBONE|DICT|INTERRES
    68   39   40 1    
    69   39   86 1    
    70   40   87 1    
    71   40   88 1    
    72   40   41 1    
    73   41   42 1    
    74   41   89 1    
    75   41   90 1    
    76   42   91 1    
    77   42   92 1    
    78   42   43 1    
    79   43   46 1    
    80   43   44 1    
    81   43   45 1    
    82   46   93 1    
    83   46   94 1    
    84   46   47 1    
    85   47   95 1    
    86   47   48 1    
    87   47   96 1    
    88   48   97 1    
    89   48   49 1    
    90   48   98 1    
    91   49   99 1    
    92   49   50 am   BACKBONE|DICT|INTERRES
    93   50   51 2    
    94   50   52 1    
    95   52   63 ar   
    96   52   53 ar   
    97   53   54 1    
    98   53   58 ar   
    99   54   56 2    
   100   54   57 1    
   101   54   55 2    
   102   57  103 1    
   103   58   60 ar   
   104   58   59 1    
   105   60   62 ar   
   106   60   61 1    
   107   62  100 1    
   108   62   63 ar   
   109   63  101 1    
@<TRIPOS>SUBSTRUCTURE
     1 UNK         1 GROUP             0       ****    0 ROOT    
