@<TRIPOS>MOLECULE
180_c1
103   108    1
SMALL
USER_CHARGES


@<TRIPOS>ATOM
      1 Fe1        -0.5902   -4.5346   -0.1617 Fe        1 UNK         0.0000 
      2 O2          0.7058   -6.1968   -4.5709 O.3       1 UNK         0.0000 
      3 C3         -0.3309   -5.6564   -5.2400 C.2       1 UNK         0.0000 
      4 O4         -0.2633   -5.3746   -6.4310 O.2       1 UNK         0.0000 
      5 C5         -1.5814   -5.4813   -4.3910 C.3       1 UNK         0.0000 
      6 C6         -1.3506   -4.8314   -3.0323 C.2       1 UNK         0.0000 
      7 O7         -1.2897   -5.4757   -1.9764 O.co2     1 UNK         0.0000 
      8 N8         -1.2170   -3.5044   -2.8631 N.am      1 UNK         0.0000 
      9 O9         -1.1767   -3.0819   -1.6159 O.co2     1 UNK         0.0000 
     10 C10        -0.8240   -2.5213   -3.9009 C.3       1 UNK         0.0000 
     11 C11         0.2575   -1.4726   -3.5008 C.3       1 UNK         0.0000 
     12 C12        -0.3318   -0.2011   -2.8491 C.3       1 UNK         0.0000 
     13 C13         0.6993    0.9355   -2.6264 C.3       1 UNK         0.0000 
     14 H14         1.2790    1.0051   -3.5454 H         1 UNK         0.0000 
     15 N15         1.7104    0.6022   -1.5971 N.am      1 UNK         0.0000 
     16 C16         1.5490    0.6255   -0.2625 C.2       1 UNK         0.0000 
     17 O17         0.6208    1.1829    0.3032 O.2       1 UNK         0.0000 
     18 C18         0.0319    2.3397   -2.5589 C.2       1 UNK         0.0000 
     19 O19        -1.1630    2.4737   -2.8206 O.2       1 UNK         0.0000 
     20 N20         0.8412    3.3847   -2.3360 N.am      1 UNK         0.0000 
     21 C21         0.3772    4.7772   -2.3674 C.3       1 UNK         0.0000 
     22 C22        -0.2752    5.1608   -1.0361 C.2       1 UNK         0.0000 
     23 O23        -1.2140    4.5166   -0.5758 O.2       1 UNK         0.0000 
     24 N24         0.1878    6.2569   -0.4234 N.am      1 UNK         0.0000 
     25 C25        -0.2822    6.6502    0.9027 C.3       1 UNK         0.0000 
     26 H26        -1.3743    6.6302    0.9088 H         1 UNK         0.0000 
     27 C27         0.1596    8.0938    1.1916 C.3       1 UNK         0.0000 
     28 C28         0.2408    5.6807    1.9851 C.2       1 UNK         0.0000 
     29 O29         1.3991    5.8088    2.3789 O.2       1 UNK         0.0000 
     30 N30        -0.6307    4.7940    2.4809 N.am      1 UNK         0.0000 
     31 C31        -0.4442    4.1473    3.7801 C.3       1 UNK         0.0000 
     32 C32        -0.5620    2.6214    3.7376 C.2       1 UNK         0.0000 
     33 O33        -1.3935    2.0770    4.4589 O.2       1 UNK         0.0000 
     34 N34         0.3302    1.9401    3.0061 N.am      1 UNK         0.0000 
     35 C35         0.7398    0.5726    3.3306 C.3       1 UNK         0.0000 
     36 H36         0.6952    0.5667    4.4191 H         1 UNK         0.0000 
     37 C37        -0.2335   -0.5759    2.9714 C.3       1 UNK         0.0000 
     38 C38         0.0589   -1.8821    3.7683 C.3       1 UNK         0.0000 
     39 C39        -1.0979   -2.9121    3.8150 C.3       1 UNK         0.0000 
     40 N40        -1.3325   -3.7184    2.5957 N.am      1 UNK         0.0000 
     41 O41        -1.0864   -3.1137    1.4421 O.co2     1 UNK         0.0000 
     42 C42        -1.7360   -5.0046    2.5495 C.2       1 UNK         0.0000 
     43 O43        -1.7382   -5.4888    1.4053 O.co2     1 UNK         0.0000 
     44 C44        -2.1249   -5.8309    3.7775 C.3       1 UNK         0.0000 
     45 C45        -1.2004   -7.0123    4.0369 C.2       1 UNK         0.0000 
     46 O46        -1.5587   -8.1794    4.0009 O.2       1 UNK         0.0000 
     47 O47         0.0640   -6.6575    4.3583 O.3       1 UNK         0.0000 
     48 C48         2.2551    0.3897    3.0962 C.2       1 UNK         0.0000 
     49 O49         2.9810    0.4837    4.0815 O.2       1 UNK         0.0000 
     50 N50         2.8842    0.2230    1.9225 N.am      1 UNK         0.0000 
     51 C51         2.5941   -0.1819    0.5460 C.3       1 UNK         0.0000 
     52 H52         3.5495   -0.0256    0.0435 H         1 UNK         0.0000 
     53 C53         2.3095   -1.6903    0.4166 C.3       1 UNK         0.0000 
     54 C54         3.2668   -2.7166    1.1072 C.3       1 UNK         0.0000 
     55 C55         3.3161   -4.1721    0.4914 C.3       1 UNK         0.0000 
     56 N56         2.0329   -4.8463    0.1895 N.am      1 UNK         0.0000 
     57 O57         1.1181   -4.0770   -0.3474 O.co2     1 UNK         0.0000 
     58 C58         1.5511   -6.0775    0.5127 C.2       1 UNK         0.0000 
     59 O59         0.3381   -6.1346    0.2171 O.co2     1 UNK         0.0000 
     60 C60         2.3108   -7.1771    1.2384 C.3       1 UNK         0.0000 
     61 C61         2.3201   -8.5095    0.5116 C.2       1 UNK         0.0000 
     62 O62         3.5589   -8.9989    0.3621 O.3       1 UNK         0.0000 
     63 O63         1.3369   -9.0885    0.0830 O.2       1 UNK         0.0000 
     64 H64        -2.0719   -6.4434   -4.2657 H         1 UNK         0.0000 
     65 H65        -2.2847   -4.8551   -4.9344 H         1 UNK         0.0000 
     66 H66        -1.7250   -2.0035   -4.2270 H         1 UNK         0.0000 
     67 H67        -0.4545   -3.0246   -4.7954 H         1 UNK         0.0000 
     68 H68         0.7964   -1.1735   -4.4065 H         1 UNK         0.0000 
     69 H69         0.9986   -1.9121   -2.8343 H         1 UNK         0.0000 
     70 H70        -0.7984   -0.4496   -1.9015 H         1 UNK         0.0000 
     71 H71        -1.1555    0.1533   -3.4747 H         1 UNK         0.0000 
     72 H72         2.5194    0.1112   -1.9454 H         1 UNK         0.0000 
     73 H73         1.8052    3.2084   -2.1117 H         1 UNK         0.0000 
     74 H74        -0.3644    4.9168   -3.1507 H         1 UNK         0.0000 
     75 H75         1.2059    5.4404   -2.6048 H         1 UNK         0.0000 
     76 H76         0.9712    6.7730   -0.7892 H         1 UNK         0.0000 
     77 H77         1.2450    8.1818    1.2360 H         1 UNK         0.0000 
     78 H78        -0.2371    8.4140    2.1551 H         1 UNK         0.0000 
     79 H79        -0.2104    8.7847    0.4347 H         1 UNK         0.0000 
     80 H80        -1.5231    4.6721    2.0219 H         1 UNK         0.0000 
     81 H81        -1.2021    4.5305    4.4617 H         1 UNK         0.0000 
     82 H82         0.5212    4.3974    4.2250 H         1 UNK         0.0000 
     83 H83         0.8970    2.4009    2.3102 H         1 UNK         0.0000 
     84 H84        -0.2384   -0.7349    1.8958 H         1 UNK         0.0000 
     85 H85        -1.2558   -0.2501    3.1907 H         1 UNK         0.0000 
     86 H86         0.9684   -2.3584    3.4060 H         1 UNK         0.0000 
     87 H87         0.2556   -1.6007    4.8033 H         1 UNK         0.0000 
     88 H88        -2.0291   -2.3941    4.0319 H         1 UNK         0.0000 
     89 H89        -0.9261   -3.5540    4.6779 H         1 UNK         0.0000 
     90 H90        -2.2121   -5.2313    4.6852 H         1 UNK         0.0000 
     91 H91        -3.1268   -6.2105    3.5992 H         1 UNK         0.0000 
     92 H92         3.8720    0.2502    2.0820 H         1 UNK         0.0000 
     93 H93         1.2906   -1.8515    0.7756 H         1 UNK         0.0000 
     94 H94         2.2953   -1.9092   -0.6540 H         1 UNK         0.0000 
     95 H95         3.0150   -2.7841    2.1658 H         1 UNK         0.0000 
     96 H96         4.2842   -2.3217    1.0806 H         1 UNK         0.0000 
     97 H97         3.8350   -4.1094   -0.4663 H         1 UNK         0.0000 
     98 H98         3.9469   -4.8113    1.0967 H         1 UNK         0.0000 
     99 H99         3.3276   -6.8606    1.4532 H         1 UNK         0.0000 
    100 H100        1.8151   -7.3463    2.1947 H         1 UNK         0.0000 
    101 H101        1.3989   -6.2361   -5.2296 H         1 UNK         0.0000 
    102 H102        0.5181   -7.4779    4.5616 H         1 UNK         0.0000 
    103 H103        3.4112   -9.8171   -0.1161 H         1 UNK         0.0000 
@<TRIPOS>BOND
     1    1    7 nc   
     2    1    9 nc   
     3    1   41 nc   
     4    1   43 nc   
     5    1   57 nc   
     6    1   59 nc   
     7    2    3 1    
     8    2  101 1    
     9    3    5 1    
    10    3    4 2    
    11    5   64 1    
    12    5    6 1    
    13    5   65 1    
    14    6    8 am   BACKBONE|DICT|INTERRES
    15    6    7 2    
    16    8    9 1    
    17    8   10 1    
    18   10   11 1    
    19   10   66 1    
    20   10   67 1    
    21   11   69 1    
    22   11   12 1    
    23   11   68 1    
    24   12   13 1    
    25   12   70 1    
    26   12   71 1    
    27   13   14 1    
    28   13   18 1    
    29   13   15 1    
    30   15   16 am   BACKBONE|DICT|INTERRES
    31   15   72 1    
    32   16   17 2    
    33   16   51 1    
    34   18   19 2    
    35   18   20 am   BACKBONE|DICT|INTERRES
    36   20   21 1    
    37   20   73 1    
    38   21   22 1    
    39   21   74 1    
    40   21   75 1    
    41   22   23 2    
    42   22   24 am   BACKBONE|DICT|INTERRES
    43   24   25 1    
    44   24   76 1    
    45   25   26 1    
    46   25   27 1    
    47   25   28 1    
    48   27   77 1    
    49   27   78 1    
    50   27   79 1    
    51   28   29 2    
    52   28   30 am   BACKBONE|DICT|INTERRES
    53   30   31 1    
    54   30   80 1    
    55   31   82 1    
    56   31   81 1    
    57   31   32 1    
    58   32   33 2    
    59   32   34 am   BACKBONE|DICT|INTERRES
    60   34   35 1    
    61   34   83 1    
    62   35   36 1    
    63   35   37 1    
    64   35   48 1    
    65   37   85 1    
    66   37   38 1    
    67   37   84 1    
    68   38   39 1    
    69   38   87 1    
    70   38   86 1    
    71   39   88 1    
    72   39   89 1    
    73   39   40 1    
    74   40   41 1    
    75   40   42 am   BACKBONE|DICT|INTERRES
    76   42   44 1    
    77   42   43 2    
    78   44   45 1    
    79   44   90 1    
    80   44   91 1    
    81   45   47 1    
    82   45   46 2    
    83   47  102 1    
    84   48   49 2    
    85   48   50 am   BACKBONE|DICT|INTERRES
    86   50   92 1    
    87   50   51 1    
    88   51   52 1    
    89   51   53 1    
    90   53   93 1    
    91   53   54 1    
    92   53   94 1    
    93   54   95 1    
    94   54   55 1    
    95   54   96 1    
    96   55   98 1    
    97   55   56 1    
    98   55   97 1    
    99   56   58 am   BACKBONE|DICT|INTERRES
   100   56   57 1    
   101   58   60 1    
   102   58   59 2    
   103   60   99 1    
   104   60  100 1    
   105   60   61 1    
   106   61   62 1    
   107   61   63 2    
   108   62  103 1    
@<TRIPOS>SUBSTRUCTURE
     1 UNK         1 GROUP             0       ****    0 ROOT    
