@<TRIPOS>MOLECULE
185_J7_c1
99   106    1
SMALL
USER_CHARGES


@<TRIPOS>ATOM
      1 Fe1         0.0012    0.0087   -0.0112 Fe        1 UNK         0.0000 
      2 F2         -1.9015   -3.3072   -4.4790 F         1 UNK         0.0000 
      3 C3         -2.0223   -3.0640   -3.1462 C.ar      1 UNK         0.0000 
      4 C4         -3.3004   -2.7587   -2.6926 C.ar      1 UNK         0.0000 
      5 C5         -3.5270   -2.5230   -1.3539 C.ar      1 UNK         0.0000 
      6 C6         -2.4576   -2.5119   -0.4656 C.ar      1 UNK         0.0000 
      7 C7         -1.1522   -2.7220   -0.9095 C.ar      1 UNK         0.0000 
      8 O8         -0.2514   -2.3939   -0.0823 O.co2     1 UNK         0.0000 
      9 C9         -0.9064   -3.1026   -2.2603 C.ar      1 UNK         0.0000 
     10 C10         0.4722   -3.5667   -2.7501 C.2       1 UNK         0.0000 
     11 O11         1.4410   -3.7217   -2.0075 O.2       1 UNK         0.0000 
     12 N12         0.5655   -3.9403   -4.0477 N.am      1 UNK         0.0000 
     13 C13         1.5913   -4.7572   -4.7259 C.3       1 UNK         0.0000 
     14 H14         1.6298   -4.3711   -5.7441 H         1 UNK         0.0000 
     15 C15         1.1662   -6.2428   -4.8113 C.3       1 UNK         0.0000 
     16 O16        -0.0360   -6.4144   -5.5490 O.3       1 UNK         0.0000 
     17 C17         3.0488   -4.6556   -4.1954 C.3       1 UNK         0.0000 
     18 C18         3.6710   -3.2558   -4.3357 C.3       1 UNK         0.0000 
     19 C19         4.9744   -3.1011   -3.5263 C.3       1 UNK         0.0000 
     20 C20         5.6619   -1.7400   -3.7229 C.3       1 UNK         0.0000 
     21 N21         4.7771   -0.6373   -3.3875 N.am      1 UNK         0.0000 
     22 C22         4.6209   -0.1272   -2.1561 C.2       1 UNK         0.0000 
     23 O23         5.3669   -0.4653   -1.2216 O.2       1 UNK         0.0000 
     24 C24         3.5726    0.9724   -2.0622 C.ar      1 UNK         0.0000 
     25 C25         2.5192    0.9628   -1.1026 C.ar      1 UNK         0.0000 
     26 O26         2.3208   -0.0947   -0.3974 O.co2     1 UNK         0.0000 
     27 C27         1.6828    2.1066   -0.9942 C.ar      1 UNK         0.0000 
     28 O28         0.8096    2.3051   -0.0748 O.co2     1 UNK         0.0000 
     29 C29         1.8075    3.1405   -1.9242 C.ar      1 UNK         0.0000 
     30 C30         2.7570    3.0973   -2.9372 C.ar      1 UNK         0.0000 
     31 C31         3.6463    2.0325   -2.9907 C.ar      1 UNK         0.0000 
     32 H32        -4.1206   -2.7150   -3.3857 H         1 UNK         0.0000 
     33 H33        -4.5076   -2.2470   -0.9954 H         1 UNK         0.0000 
     34 H34        -2.6342   -2.1891    0.5553 H         1 UNK         0.0000 
     35 H35        -0.2961   -3.7757   -4.5468 H         1 UNK         0.0000 
     36 H36         1.0297   -6.6556   -3.8070 H         1 UNK         0.0000 
     37 H37         1.9392   -6.8359   -5.3090 H         1 UNK         0.0000 
     38 H38         0.0995   -6.0924   -6.4441 H         1 UNK         0.0000 
     39 H39         3.6894   -5.3631   -4.7233 H         1 UNK         0.0000 
     40 H40         3.0896   -4.9759   -3.1536 H         1 UNK         0.0000 
     41 H41         2.9562   -2.5065   -3.9918 H         1 UNK         0.0000 
     42 H42         3.8504   -3.0448   -5.3916 H         1 UNK         0.0000 
     43 H43         5.6760   -3.9006   -3.7820 H         1 UNK         0.0000 
     44 H44         4.7454   -3.2317   -2.4635 H         1 UNK         0.0000 
     45 H45         5.9242   -1.6195   -4.7715 H         1 UNK         0.0000 
     46 H46         6.5935   -1.7010   -3.1470 H         1 UNK         0.0000 
     47 H47         4.0344   -0.4037   -4.0260 H         1 UNK         0.0000 
     48 H48         1.1271    3.9849   -1.8633 H         1 UNK         0.0000 
     49 H49         2.8033    3.8856   -3.6687 H         1 UNK         0.0000 
     50 H50         4.4012    2.0201   -3.7650 H         1 UNK         0.0000 
     51 F51         1.9077    4.4765    3.2988 F         1 UNK         0.0000 
     52 C52         2.0271    3.1433    3.0565 C.ar      1 UNK         0.0000 
     53 C53         3.3039    2.6888    2.7470 C.ar      1 UNK         0.0000 
     54 C54         3.5296    1.3495    2.5129 C.ar      1 UNK         0.0000 
     55 C55         2.4598    0.4616    2.5068 C.ar      1 UNK         0.0000 
     56 C56         1.1554    0.9066    2.7200 C.ar      1 UNK         0.0000 
     57 O57         0.2533    0.0805    2.3919 O.co2     1 UNK         0.0000 
     58 C58         0.9110    2.2577    3.1002 C.ar      1 UNK         0.0000 
     59 C59        -0.4656    2.7477    3.5702 C.2       1 UNK         0.0000 
     60 O60        -1.4310    2.0032    3.7391 O.2       1 UNK         0.0000 
     61 N61        -0.5595    4.0478    3.9341 N.am      1 UNK         0.0000 
     62 C62        -1.5826    4.7296    4.7519 C.3       1 UNK         0.0000 
     63 H63        -1.6222    5.7463    4.3624 H         1 UNK         0.0000 
     64 C64        -1.1546    4.8206    6.2368 C.3       1 UNK         0.0000 
     65 O65         0.0460    5.5618    6.4034 O.3       1 UNK         0.0000 
     66 C66        -3.0406    4.1993    4.6555 C.3       1 UNK         0.0000 
     67 C67        -3.6644    4.3345    3.2563 C.3       1 UNK         0.0000 
     68 C68        -4.9673    3.5237    3.1050 C.3       1 UNK         0.0000 
     69 C69        -5.6579    3.7189    1.7453 C.3       1 UNK         0.0000 
     70 N70        -4.7731    3.3878    0.6412 N.am      1 UNK         0.0000 
     71 C71        -4.6138    2.1571    0.1296 C.2       1 UNK         0.0000 
     72 O72        -5.3579    1.2211    0.4664 O.2       1 UNK         0.0000 
     73 C73        -3.5627    2.0664   -0.9680 C.ar      1 UNK         0.0000 
     74 C74        -2.5135    1.1021   -0.9618 C.ar      1 UNK         0.0000 
     75 O75        -2.3190    0.3912    0.0925 O.co2     1 UNK         0.0000 
     76 C76        -1.6764    0.9958   -2.1051 C.ar      1 UNK         0.0000 
     77 O77        -0.8080    0.0726   -2.3074 O.co2     1 UNK         0.0000 
     78 C78        -1.7947    1.9320   -3.1339 C.ar      1 UNK         0.0000 
     79 C79        -2.7391    2.9497   -3.0864 C.ar      1 UNK         0.0000 
     80 C80        -3.6301    3.0012   -2.0229 C.ar      1 UNK         0.0000 
     81 H81         4.1242    3.3813    2.7000 H         1 UNK         0.0000 
     82 H82         4.5092    0.9906    2.2337 H         1 UNK         0.0000 
     83 H83         2.6348   -0.5590    2.1825 H         1 UNK         0.0000 
     84 H84         0.3011    4.5464    3.7616 H         1 UNK         0.0000 
     85 H85        -1.0152    3.8181    6.6527 H         1 UNK         0.0000 
     86 H86        -1.9275    5.3184    6.8299 H         1 UNK         0.0000 
     87 H87        -0.0934    6.4566    6.0821 H         1 UNK         0.0000 
     88 H88        -3.6802    4.7301    5.3617 H         1 UNK         0.0000 
     89 H89        -3.0820    3.1588    4.9799 H         1 UNK         0.0000 
     90 H90        -2.9499    3.9885    2.5075 H         1 UNK         0.0000 
     91 H91        -3.8445    5.3897    3.0418 H         1 UNK         0.0000 
     92 H92        -5.6674    3.7791    3.9058 H         1 UNK         0.0000 
     93 H93        -4.7367    2.4613    3.2359 H         1 UNK         0.0000 
     94 H94        -5.9238    4.7667    1.6259 H         1 UNK         0.0000 
     95 H95        -6.5873    3.1396    1.7069 H         1 UNK         0.0000 
     96 H96        -4.0325    4.0287    0.4079 H         1 UNK         0.0000 
     97 H97        -1.1135    1.8724   -3.9776 H         1 UNK         0.0000 
     98 H98        -2.7803    3.6857   -3.8708 H         1 UNK         0.0000 
     99 H99        -4.3815    3.7791   -2.0081 H         1 UNK         0.0000 
@<TRIPOS>BOND
     1    1    8 nc   
     2    1   26 nc   
     3    1   28 nc   
     4    1   57 nc   
     5    1   75 nc   
     6    1   77 nc   
     7    2    3 1    
     8    3    4 ar   
     9    3    9 ar   
    10    4    5 ar   
    11    4   32 1    
    12    5   33 1    
    13    5    6 ar   
    14    6   34 1    
    15    6    7 ar   
    16    7    8 1    
    17    7    9 ar   
    18    9   10 1    
    19   10   11 2    
    20   10   12 am   BACKBONE|DICT|INTERRES
    21   12   13 1    
    22   12   35 1    
    23   13   14 1    
    24   13   17 1    
    25   13   15 1    
    26   15   36 1    
    27   15   16 1    
    28   15   37 1    
    29   16   38 1    
    30   17   40 1    
    31   17   18 1    
    32   17   39 1    
    33   18   41 1    
    34   18   19 1    
    35   18   42 1    
    36   19   44 1    
    37   19   20 1    
    38   19   43 1    
    39   20   21 1    
    40   20   46 1    
    41   20   45 1    
    42   21   22 am   BACKBONE|DICT|INTERRES
    43   21   47 1    
    44   22   24 1    
    45   22   23 2    
    46   24   25 ar   
    47   24   31 ar   
    48   25   27 ar   
    49   25   26 1    
    50   27   28 1    
    51   27   29 ar   
    52   29   48 1    
    53   29   30 ar   
    54   30   31 ar   
    55   30   49 1    
    56   31   50 1    
    57   51   52 1    
    58   52   58 ar   
    59   52   53 ar   
    60   53   54 ar   
    61   53   81 1    
    62   54   55 ar   
    63   54   82 1    
    64   55   56 ar   
    65   55   83 1    
    66   56   58 ar   
    67   56   57 1    
    68   58   59 1    
    69   59   61 am   BACKBONE|DICT|INTERRES
    70   59   60 2    
    71   61   84 1    
    72   61   62 1    
    73   62   63 1    
    74   62   64 1    
    75   62   66 1    
    76   64   65 1    
    77   64   85 1    
    78   64   86 1    
    79   65   87 1    
    80   66   89 1    
    81   66   88 1    
    82   66   67 1    
    83   67   68 1    
    84   67   90 1    
    85   67   91 1    
    86   68   93 1    
    87   68   92 1    
    88   68   69 1    
    89   69   70 1    
    90   69   94 1    
    91   69   95 1    
    92   70   71 am   BACKBONE|DICT|INTERRES
    93   70   96 1    
    94   71   72 2    
    95   71   73 1    
    96   73   74 ar   
    97   73   80 ar   
    98   74   75 1    
    99   74   76 ar   
   100   76   77 1    
   101   76   78 ar   
   102   78   79 ar   
   103   78   97 1    
   104   79   80 ar   
   105   79   98 1    
   106   80   99 1    
@<TRIPOS>SUBSTRUCTURE
     1 UNK         1 GROUP             0       ****    0 ROOT    
