@<TRIPOS>MOLECULE
029_r1_c1
122   128    1
SMALL
USER_CHARGES


@<TRIPOS>ATOM
      1 Fe1        -0.6246    9.4692   -0.0871 Fe        1 UNK         0.0000 
      2 C2          3.3838  -10.7591    0.0214 C.ar      1 UNK         0.0000 
      3 C3          4.4282  -11.6586   -0.1358 C.ar      1 UNK         0.0000 
      4 C4          4.2124  -12.8569   -0.8091 C.ar      1 UNK         0.0000 
      5 N5          5.2064  -13.6694   -0.9237 N.2       1 UNK         0.0000 
      6 H6          5.1613  -14.5818   -1.3973 H         1 UNK         0.0000 
      7 N7          2.9676  -13.1394   -1.3229 N.pl3     1 UNK         0.0000 
      8 C8          2.7218  -14.4113   -2.0355 C.3       1 UNK         0.0000 
      9 C9          1.9360  -12.2231   -1.1593 C.ar      1 UNK         0.0000 
     10 O10         0.8288  -12.4789   -1.6085 O.2       1 UNK         0.0000 
     11 N11         2.1427  -11.0286   -0.4757 N.pl3     1 UNK         0.0000 
     12 C12         1.0146  -10.0779   -0.2724 C.3       1 UNK         0.0000 
     13 H13         0.1172  -10.4342   -0.8211 H         1 UNK         0.0000 
     14 C14         0.5644   -9.9621    1.2058 C.3       1 UNK         0.0000 
     15 H15        -0.5535   -9.9515    1.2201 H         1 UNK         0.0000 
     16 O16         1.0292  -11.0012    2.0271 O.3       1 UNK         0.0000 
     17 C17         0.9558   -8.5785    1.7282 C.3       1 UNK         0.0000 
     18 H18         0.3970   -8.3232    2.6588 H         1 UNK         0.0000 
     19 O19         2.3328   -8.4811    1.9782 O.3       1 UNK         0.0000 
     20 S20         1.3628   -8.3764   -0.9037 S.3       1 UNK         0.0000 
     21 C21         0.5576   -7.6521    0.5747 C.3       1 UNK         0.0000 
     22 H22        -0.5431   -7.7436    0.4275 H         1 UNK         0.0000 
     23 C23         0.8298   -6.1487    0.8621 C.3       1 UNK         0.0000 
     24 H24         0.2970   -5.9631    1.8273 H         1 UNK         0.0000 
     25 O25         2.2052   -5.8835    0.9999 O.3       1 UNK         0.0000 
     26 C26         0.1713   -5.1831   -0.1726 C.3       1 UNK         0.0000 
     27 H27        -0.8627   -5.5590   -0.3339 H         1 UNK         0.0000 
     28 C28         0.8890   -5.2003   -1.5056 C.2       1 UNK         0.0000 
     29 O29         0.2388   -5.6087   -2.6123 O.2       1 UNK         0.0000 
     30 O30         2.0602   -4.8631   -1.5883 O.3       1 UNK         0.0000 
     31 N31        -0.0024   -3.8500    0.4228 N.am      1 UNK         0.0000 
     32 C32         0.2599   -2.6152   -0.1175 C.2       1 UNK         0.0000 
     33 O33         0.7202   -2.5017   -1.2431 O.2       1 UNK         0.0000 
     34 C34        -0.1059   -1.3683    0.6985 C.3       1 UNK         0.0000 
     35 H35        -1.1780   -1.4922    0.9701 H         1 UNK         0.0000 
     36 C36         0.7864   -1.3447    1.9664 C.3       1 UNK         0.0000 
     37 O37         0.4387   -0.2976    2.8268 O.3       1 UNK         0.0000 
     38 N38         0.0321   -0.1161   -0.0597 N.am      1 UNK         0.0000 
     39 C39        -0.5121    1.0701    0.3653 C.2       1 UNK         0.0000 
     40 O40        -1.1973    1.1043    1.3755 O.2       1 UNK         0.0000 
     41 C41        -0.2444    2.3733   -0.3773 C.3       1 UNK         0.0000 
     42 H42         0.3624    2.1488   -1.2838 H         1 UNK         0.0000 
     43 C43         0.6349    3.2988    0.5216 C.3       1 UNK         0.0000 
     44 C44         0.6444    4.7680    0.0646 C.3       1 UNK         0.0000 
     45 C45         1.4855    5.6718    0.9520 C.3       1 UNK         0.0000 
     46 N46         1.1413    7.0689    0.7390 N.am      1 UNK         0.0000 
     47 O47         0.1134    7.6630    0.1029 O.co2     1 UNK         0.0000 
     48 C48         1.6671    8.1219    1.1626 C.2       1 UNK         0.0000 
     49 O49         0.9547    8.9732    0.6985 O.co2     1 UNK         0.0000 
     50 C50         2.8769    8.3105    2.0229 C.3       1 UNK         0.0000 
     51 N51        -1.4594    3.0601   -0.8508 N.am      1 UNK         0.0000 
     52 C52        -2.3298    3.7519   -0.0498 C.2       1 UNK         0.0000 
     53 O53        -2.2320    3.6685    1.1661 O.2       1 UNK         0.0000 
     54 C54        -3.2926    4.7959   -0.6445 C.3       1 UNK         0.0000 
     55 H55        -4.1157    4.2828   -1.1857 H         1 UNK         0.0000 
     56 C56        -2.5487    5.7599   -1.6441 C.3       1 UNK         0.0000 
     57 C57        -3.4439    6.9047   -2.1672 C.3       1 UNK         0.0000 
     58 C58        -2.7704    7.9193   -3.1296 C.3       1 UNK         0.0000 
     59 N59        -1.8161    8.8381   -2.5063 N.am      1 UNK         0.0000 
     60 O60        -1.9301    9.6636   -1.4579 O.co2     1 UNK         0.0000 
     61 C61        -0.6435    9.2152   -2.7901 C.2       1 UNK         0.0000 
     62 O62        -0.4116   10.0680   -1.9391 O.co2     1 UNK         0.0000 
     63 C63         0.2606    8.7343   -3.8786 C.3       1 UNK         0.0000 
     64 N64        -3.7799    5.6474    0.4334 N.am      1 UNK         0.0000 
     65 C65        -5.0951    5.8769    0.7565 C.2       1 UNK         0.0000 
     66 O66        -5.9765    5.2269    0.2163 O.2       1 UNK         0.0000 
     67 C67        -5.5016    7.0089    1.7258 C.3       1 UNK         0.0000 
     68 H68        -6.2187    7.6535    1.1697 H         1 UNK         0.0000 
     69 N69        -6.1639    6.4654    2.9090 N.3       1 UNK         0.0000 
     70 C70        -4.2939    7.9010    2.0849 C.3       1 UNK         0.0000 
     71 C71        -4.4874    9.2822    2.7469 C.3       1 UNK         0.0000 
     72 C72        -3.1679   10.0199    3.1889 C.3       1 UNK         0.0000 
     73 N73        -2.1648   10.3374    2.1569 N.am      1 UNK         0.0000 
     74 O74        -1.9020    9.8121    0.9517 O.co2     1 UNK         0.0000 
     75 C75        -1.0420   10.8969    2.2185 C.2       1 UNK         0.0000 
     76 O76        -0.5720   10.6353    1.1215 O.co2     1 UNK         0.0000 
     77 C77        -0.3658   11.5870    3.3617 C.3       1 UNK         0.0000 
     78 H78         3.5892   -9.8436    0.5454 H         1 UNK         0.0000 
     79 H79         5.4044  -11.4223    0.2725 H         1 UNK         0.0000 
     80 H80         3.3822  -14.4814   -2.9255 H         1 UNK         0.0000 
     81 H81         2.9165  -15.2692   -1.3564 H         1 UNK         0.0000 
     82 H82         1.6778  -14.5164   -2.3962 H         1 UNK         0.0000 
     83 H83         0.5128  -11.8109    1.7764 H         1 UNK         0.0000 
     84 H84         2.5046   -8.9605    2.8304 H         1 UNK         0.0000 
     85 H85         2.3792   -5.6712    1.9539 H         1 UNK         0.0000 
     86 H86        -0.4669   -3.8530    1.3432 H         1 UNK         0.0000 
     87 H87         1.8481   -1.2296    1.6480 H         1 UNK         0.0000 
     88 H88         0.6820   -2.2994    2.5264 H         1 UNK         0.0000 
     89 H89         1.1022   -0.3119    3.5651 H         1 UNK         0.0000 
     90 H90         0.5600   -0.1181   -0.9445 H         1 UNK         0.0000 
     91 H91         0.2327    3.3060    1.5584 H         1 UNK         0.0000 
     92 H92         1.6654    2.8827    0.5722 H         1 UNK         0.0000 
     93 H93        -0.3712    5.1512    0.1813 H         1 UNK         0.0000 
     94 H94         0.9595    4.8724   -0.9964 H         1 UNK         0.0000 
     95 H95         1.3176    5.4473    2.0277 H         1 UNK         0.0000 
     96 H96         2.5553    5.4882    0.7114 H         1 UNK         0.0000 
     97 H97         3.3280    7.3327    2.2906 H         1 UNK         0.0000 
     98 H98         3.6283    8.9159    1.4747 H         1 UNK         0.0000 
     99 H99         2.5881    8.8414    2.9535 H         1 UNK         0.0000 
    100 H100       -1.5447    3.1683   -1.8709 H         1 UNK         0.0000 
    101 H101       -2.1560    5.1959   -2.5150 H         1 UNK         0.0000 
    102 H102       -1.7055    6.2365   -1.1293 H         1 UNK         0.0000 
    103 H103       -3.8777    7.4831   -1.3260 H         1 UNK         0.0000 
    104 H104       -4.2806    6.4220   -2.7174 H         1 UNK         0.0000 
    105 H105       -3.5934    8.5465   -3.5322 H         1 UNK         0.0000 
    106 H106       -2.3039    7.3890   -3.9878 H         1 UNK         0.0000 
    107 H107       -0.2137    8.8995   -4.8670 H         1 UNK         0.0000 
    108 H108        0.4539    7.6493   -3.7382 H         1 UNK         0.0000 
    109 H109        1.2275    9.2782   -3.8361 H         1 UNK         0.0000 
    110 H110       -3.0300    6.1599    0.9147 H         1 UNK         0.0000 
    111 H111       -6.5078    7.2494    3.5087 H         1 UNK         0.0000 
    112 H112       -5.4881    5.8877    3.4593 H         1 UNK         0.0000 
    113 H113       -3.9736    8.1264    1.0635 H         1 UNK         0.0000 
    114 H114       -3.5676    7.3100    2.6899 H         1 UNK         0.0000 
    115 H115       -5.0778    9.1364    3.6754 H         1 UNK         0.0000 
    116 H116       -5.0716    9.9306    2.0611 H         1 UNK         0.0000 
    117 H117       -2.6698    9.4077    3.9738 H         1 UNK         0.0000 
    118 H118       -3.4767   10.9726    3.6688 H         1 UNK         0.0000 
    119 H119       -0.1288   12.6325    3.0780 H         1 UNK         0.0000 
    120 H120       -1.0132   11.5876    4.2624 H         1 UNK         0.0000 
    121 H121        0.5795   11.0542    3.6025 H         1 UNK         0.0000 
    122 H122        2.3508   -4.9351   -2.5004 H         1 UNK         0.0000 
@<TRIPOS>BOND
     1    1   47 nc   
     2    1   49 nc   
     3    1   60 nc   
     4    1   62 nc   
     5    1   74 nc   
     6    1   76 nc   
     7    2   78 1    
     8    2    3 ar   
     9    2   11 ar   
    10    3   79 1    
    11    3    4 ar   
    12    4    5 2    
    13    4    7 ar   
    14    5    6 1    
    15    7    9 ar   
    16    7    8 1    
    17    8   81 1    
    18    8   80 1    
    19    8   82 1    
    20    9   11 ar   
    21    9   10 2    
    22   11   12 1    
    23   12   13 1    
    24   12   14 1    
    25   12   20 1    
    26   14   15 1    
    27   14   17 1    
    28   14   16 1    
    29   16   83 1    
    30   17   19 1    
    31   17   18 1    
    32   17   21 1    
    33   19   84 1    
    34   20   21 1    
    35   21   22 1    
    36   21   23 1    
    37   23   25 1    
    38   23   24 1    
    39   23   26 1    
    40   25   85 1    
    41   26   27 1    
    42   26   31 1    
    43   26   28 1    
    44   28   29 2    
    45   28   30 1    
    46   30  122 1    
    47   31   86 1    
    48   31   32 am   BACKBONE|DICT|INTERRES
    49   32   34 1    
    50   32   33 2    
    51   34   35 1    
    52   34   36 1    
    53   34   38 1    
    54   36   88 1    
    55   36   37 1    
    56   36   87 1    
    57   37   89 1    
    58   38   39 am   BACKBONE|DICT|INTERRES
    59   38   90 1    
    60   39   40 2    
    61   39   41 1    
    62   41   42 1    
    63   41   43 1    
    64   41   51 1    
    65   43   92 1    
    66   43   91 1    
    67   43   44 1    
    68   44   93 1    
    69   44   45 1    
    70   44   94 1    
    71   45   95 1    
    72   45   46 1    
    73   45   96 1    
    74   46   48 am   BACKBONE|DICT|INTERRES
    75   46   47 1    
    76   48   50 1    
    77   48   49 2    
    78   50   97 1    
    79   50   99 1    
    80   50   98 1    
    81   51   52 am   BACKBONE|DICT|INTERRES
    82   51  100 1    
    83   52   53 2    
    84   52   54 1    
    85   54   55 1    
    86   54   64 1    
    87   54   56 1    
    88   56  102 1    
    89   56   57 1    
    90   56  101 1    
    91   57  103 1    
    92   57   58 1    
    93   57  104 1    
    94   58   59 1    
    95   58  105 1    
    96   58  106 1    
    97   59   60 1    
    98   59   61 am   BACKBONE|DICT|INTERRES
    99   61   63 1    
   100   61   62 2    
   101   63  109 1    
   102   63  108 1    
   103   63  107 1    
   104   64   65 am   BACKBONE|DICT|INTERRES
   105   64  110 1    
   106   65   67 1    
   107   65   66 2    
   108   67   68 1    
   109   67   70 1    
   110   67   69 1    
   111   69  112 1    
   112   69  111 1    
   113   70  114 1    
   114   70   71 1    
   115   70  113 1    
   116   71   72 1    
   117   71  115 1    
   118   71  116 1    
   119   72  118 1    
   120   72  117 1    
   121   72   73 1    
   122   73   75 am   BACKBONE|DICT|INTERRES
   123   73   74 1    
   124   75   77 1    
   125   75   76 2    
   126   77  121 1    
   127   77  120 1    
   128   77  119 1    
@<TRIPOS>SUBSTRUCTURE
     1 UNK         1 GROUP             0       ****    0 ROOT    
