@<TRIPOS>MOLECULE
179_D1_c1
82   90    1
SMALL
USER_CHARGES


@<TRIPOS>ATOM
      1 Fe1        -0.4020   -0.7787   -0.6171 Fe        1 UNK         0.0000 
      2 O2          1.3624   -0.1338   -1.5084 O.co2     1 UNK         0.0000 
      3 N3          1.5063    1.1658   -1.8112 N.am      1 UNK         0.0000 
      4 C4          0.3800    1.8307   -1.4357 C.2       1 UNK         0.0000 
      5 O5         -0.5615    1.1391   -1.0580 O.co2     1 UNK         0.0000 
      6 C6          0.4579    3.3685   -1.4433 C.3       1 UNK         0.0000 
      7 H7          1.3251    3.6310   -0.8368 H         1 UNK         0.0000 
      8 C8          0.8005    3.7712   -2.8925 C.3       1 UNK         0.0000 
      9 C9          2.1619    3.1143   -3.2602 C.3       1 UNK         0.0000 
     10 C10         2.1663    1.5658   -3.0691 C.3       1 UNK         0.0000 
     11 N11        -0.7324    3.9198   -0.7222 N.am      1 UNK         0.0000 
     12 C12        -2.0910    4.0924   -1.2599 C.3       1 UNK         0.0000 
     13 H13        -2.1045    4.9771   -1.9064 H         1 UNK         0.0000 
     14 C14        -2.6575    2.9150   -2.0796 C.3       1 UNK         0.0000 
     15 N15        -2.8898    4.5070   -0.0118 N.4       1 UNK         0.0000 
     16 H16        -2.7980    5.5116    0.0392 H         1 UNK         0.0000 
     17 C17        -4.4044    4.2030   -0.0432 C.3       1 UNK         0.0000 
     18 C18        -2.1216    3.9241    1.1902 C.3       1 UNK         0.0000 
     19 H19        -2.2235    4.6786    1.9709 H         1 UNK         0.0000 
     20 C20        -0.6822    3.9529    0.6381 C.2       1 UNK         0.0000 
     21 O21         0.3277    3.9014    1.3335 O.2       1 UNK         0.0000 
     22 C22        -2.5334    2.5106    1.7179 C.3       1 UNK         0.0000 
     23 C23        -1.7228    1.9008    2.9092 C.3       1 UNK         0.0000 
     24 C24        -1.8461    0.3561    3.1473 C.3       1 UNK         0.0000 
     25 N25        -1.1999   -0.4810    2.1178 N.am      1 UNK         0.0000 
     26 O26        -1.7200   -0.3983    0.9161 O.co2     1 UNK         0.0000 
     27 C27        -0.0448   -1.1901    2.2043 C.2       1 UNK         0.0000 
     28 O28         0.3238   -1.6227    1.0963 O.co2     1 UNK         0.0000 
     29 C29         0.7876   -1.3057    3.4887 C.3       1 UNK         0.0000 
     30 C30         2.2288   -1.8389    3.3048 C.3       1 UNK         0.0000 
     31 N31         2.3574   -3.1303    2.6162 N.am      1 UNK         0.0000 
     32 C32         1.9422   -4.3023    3.1187 C.2       1 UNK         0.0000 
     33 O33         1.3898   -4.3841    4.2095 O.2       1 UNK         0.0000 
     34 C34         2.1039   -5.5583    2.2517 C.3       1 UNK         0.0000 
     35 N35         1.5102   -5.3041    0.9441 N.am      1 UNK         0.0000 
     36 C36         2.1787   -4.9336   -0.1523 C.2       1 UNK         0.0000 
     37 O37         3.4032   -4.8479   -0.1711 O.2       1 UNK         0.0000 
     38 C38         1.3625   -4.5057   -1.4081 C.3       1 UNK         0.0000 
     39 H39         1.7415   -5.0765   -2.2548 H         1 UNK         0.0000 
     40 N40        -0.0630   -4.7336   -1.2724 N.2       1 UNK         0.0000 
     41 C41        -0.6443   -3.5998   -1.2914 C.2       1 UNK         0.0000 
     42 O42         0.2171   -2.5034   -1.3257 O.3       1 UNK         0.0000 
     43 C43         1.5188   -3.0098   -1.6406 C.3       1 UNK         0.0000 
     44 C44        -2.1003   -3.3247   -1.2295 C.ar      1 UNK         0.0000 
     45 C45        -2.6574   -2.0673   -1.5412 C.ar      1 UNK         0.0000 
     46 O46        -1.9513   -1.0932   -1.9126 O.co2     1 UNK         0.0000 
     47 C47        -4.0334   -1.8639   -1.4322 C.ar      1 UNK         0.0000 
     48 C48        -4.8740   -2.8980   -1.0212 C.ar      1 UNK         0.0000 
     49 C49        -4.3387   -4.1482   -0.7296 C.ar      1 UNK         0.0000 
     50 C50        -2.9654   -4.3634   -0.8427 C.ar      1 UNK         0.0000 
     51 H51         0.8906    4.8524   -2.9791 H         1 UNK         0.0000 
     52 H52         0.0325    3.4609   -3.6091 H         1 UNK         0.0000 
     53 H53         2.4495    3.3484   -4.2882 H         1 UNK         0.0000 
     54 H54         2.9567    3.5440   -2.6434 H         1 UNK         0.0000 
     55 H55         3.1850    1.1702   -3.0573 H         1 UNK         0.0000 
     56 H56         1.6491    1.0956   -3.9059 H         1 UNK         0.0000 
     57 H57        -2.8304    2.0288   -1.4646 H         1 UNK         0.0000 
     58 H58        -3.6106    3.1691   -2.5462 H         1 UNK         0.0000 
     59 H59        -1.9856    2.6312   -2.8874 H         1 UNK         0.0000 
     60 H60        -4.8229    4.7320   -0.9016 H         1 UNK         0.0000 
     61 H61        -4.8318    4.5755    0.8880 H         1 UNK         0.0000 
     62 H62        -4.5488    3.1268   -0.1354 H         1 UNK         0.0000 
     63 H63        -3.5795    2.5396    2.0262 H         1 UNK         0.0000 
     64 H64        -2.4967    1.8426    0.8618 H         1 UNK         0.0000 
     65 H65        -0.6551    2.1202    2.8456 H         1 UNK         0.0000 
     66 H66        -2.0699    2.4005    3.8191 H         1 UNK         0.0000 
     67 H67        -1.4571    0.1197    4.1421 H         1 UNK         0.0000 
     68 H68        -2.9034    0.0658    3.1860 H         1 UNK         0.0000 
     69 H69         0.8093   -0.3852    4.0637 H         1 UNK         0.0000 
     70 H70         0.2390   -2.0308    4.0826 H         1 UNK         0.0000 
     71 H71         2.7633   -1.8187    4.2581 H         1 UNK         0.0000 
     72 H72         2.7676   -1.1230    2.6784 H         1 UNK         0.0000 
     73 H73         2.8452   -3.1446    1.7330 H         1 UNK         0.0000 
     74 H74         3.1631   -5.8112    2.1809 H         1 UNK         0.0000 
     75 H75         1.5856   -6.3975    2.7102 H         1 UNK         0.0000 
     76 H76         0.5065   -5.3689    0.8626 H         1 UNK         0.0000 
     77 H77         1.7735   -2.7685   -2.6697 H         1 UNK         0.0000 
     78 H78         2.2838   -2.5306   -1.0278 H         1 UNK         0.0000 
     79 H79        -4.4595   -0.8977   -1.6605 H         1 UNK         0.0000 
     80 H80        -5.9367   -2.7230   -0.9356 H         1 UNK         0.0000 
     81 H81        -4.9978   -4.9470   -0.4194 H         1 UNK         0.0000 
     82 H82        -2.5795   -5.3505   -0.6117 H         1 UNK         0.0000 
@<TRIPOS>BOND
     1    1    2 nc   
     2    1    5 nc   
     3    1   26 nc   
     4    1   28 nc   
     5    1   42 nc   
     6    1   46 nc   
     7    2    3 1    
     8    3    4 am   BACKBONE|DICT|INTERRES
     9    3   10 1    
    10    4    5 2    
    11    4    6 1    
    12    6    7 1    
    13    6   11 1    
    14    6    8 1    
    15    8    9 1    
    16    8   51 1    
    17    8   52 1    
    18    9   10 1    
    19    9   54 1    
    20    9   53 1    
    21   10   55 1    
    22   10   56 1    
    23   11   20 am   BACKBONE|DICT|INTERRES
    24   11   12 1    
    25   12   13 1    
    26   12   15 1    
    27   12   14 1    
    28   14   57 1    
    29   14   58 1    
    30   14   59 1    
    31   15   16 1    
    32   15   18 1    
    33   15   17 1    
    34   17   61 1    
    35   17   60 1    
    36   17   62 1    
    37   18   22 1    
    38   18   19 1    
    39   18   20 1    
    40   20   21 2    
    41   22   63 1    
    42   22   23 1    
    43   22   64 1    
    44   23   24 1    
    45   23   66 1    
    46   23   65 1    
    47   24   68 1    
    48   24   67 1    
    49   24   25 1    
    50   25   27 am   BACKBONE|DICT|INTERRES
    51   25   26 1    
    52   27   29 1    
    53   27   28 2    
    54   29   69 1    
    55   29   70 1    
    56   29   30 1    
    57   30   71 1    
    58   30   31 1    
    59   30   72 1    
    60   31   32 am   BACKBONE|DICT|INTERRES
    61   31   73 1    
    62   32   33 2    
    63   32   34 1    
    64   34   75 1    
    65   34   35 1    
    66   34   74 1    
    67   35   76 1    
    68   35   36 am   BACKBONE|DICT|INTERRES
    69   36   37 2    
    70   36   38 1    
    71   38   39 1    
    72   38   40 1    
    73   38   43 1    
    74   40   41 2    
    75   41   44 1    
    76   41   42 1    
    77   42   43 1    
    78   43   78 1    
    79   43   77 1    
    80   44   50 ar   
    81   44   45 ar   
    82   45   47 ar   
    83   45   46 1    
    84   47   48 ar   
    85   47   79 1    
    86   48   80 1    
    87   48   49 ar   
    88   49   81 1    
    89   49   50 ar   
    90   50   82 1    
@<TRIPOS>SUBSTRUCTURE
     1 UNK         1 GROUP             0       ****    0 ROOT    
