@<TRIPOS>MOLECULE
119_c1
97   103    1
SMALL
USER_CHARGES


@<TRIPOS>ATOM
      1 Fe1        -0.2954   -0.0527   -2.6783 Fe        1 UNK         0.0000 
      2 C2         -1.0772   -4.9198   -3.5385 C.ar      1 UNK         0.0000 
      3 C3         -0.2260   -4.7084   -4.6163 C.ar      1 UNK         0.0000 
      4 C4          0.1520   -3.4092   -4.9349 C.ar      1 UNK         0.0000 
      5 C5         -0.3875   -2.3373   -4.2266 C.ar      1 UNK         0.0000 
      6 O6          0.0472   -1.1867   -4.4363 O.co2     1 UNK         0.0000 
      7 C7         -1.3380   -2.5235   -3.2037 C.ar      1 UNK         0.0000 
      8 O8         -1.8830   -1.4717   -2.7056 O.co2     1 UNK         0.0000 
      9 C9         -1.6146   -3.8567   -2.7810 C.ar      1 UNK         0.0000 
     10 C10        -2.3247   -4.2121   -1.4790 C.2       1 UNK         0.0000 
     11 O11        -3.4381   -3.8179   -1.1361 O.2       1 UNK         0.0000 
     12 N12        -1.7409   -5.1975   -0.7797 N.am      1 UNK         0.0000 
     13 C13        -0.3291   -5.1265   -0.3591 C.3       1 UNK         0.0000 
     14 H14         0.2761   -4.9060   -1.2467 H         1 UNK         0.0000 
     15 C15         0.1506   -6.5191    0.1257 C.3       1 UNK         0.0000 
     16 C16        -0.5593   -7.1622    1.3504 C.3       1 UNK         0.0000 
     17 C17         0.1263   -8.5103    1.6995 C.3       1 UNK         0.0000 
     18 N18        -0.5526   -9.2746    2.7661 N.pl3     1 UNK         0.0000 
     19 C19        -0.1623  -10.4736    3.2364 C.cat     1 UNK         0.0000 
     20 N20        -0.8574  -11.0757    4.2032 N.pl3     1 UNK         0.0000 
     21 N21         0.9188  -11.0707    2.7391 N.pl3     1 UNK         0.0000 
     22 H22         1.2652  -11.9692    3.0553 H         1 UNK         0.0000 
     23 H23         1.4634  -10.6247    2.0136 H         1 UNK         0.0000 
     24 C24         0.0136   -3.9599    0.6202 C.2       1 UNK         0.0000 
     25 O25        -0.1846   -4.0937    1.8331 O.2       1 UNK         0.0000 
     26 N26         0.5778   -2.8627    0.0735 N.am      1 UNK         0.0000 
     27 C27         0.9058   -1.5565    0.7097 C.3       1 UNK         0.0000 
     28 H28         1.9539   -1.5741    1.0283 H         1 UNK         0.0000 
     29 C29         0.8495   -0.4130   -0.3668 C.2       1 UNK         0.0000 
     30 O30        -0.3017   -0.1656   -0.6703 O.co2     1 UNK         0.0000 
     31 O31         1.3242   -0.6155   -1.4899 O.co2     1 UNK         0.0000 
     32 C32        -0.0024   -1.2272    1.9430 C.3       1 UNK         0.0000 
     33 O33        -0.1002    0.1177    2.3940 O.3       1 UNK         0.0000 
     34 C34         0.9068    0.7375    3.0192 C.2       1 UNK         0.0000 
     35 O35         2.0650    0.3095    3.1004 O.2       1 UNK         0.0000 
     36 C36         0.4209    2.0031    3.7212 C.3       1 UNK         0.0000 
     37 H37        -0.3462    1.6719    4.4182 H         1 UNK         0.0000 
     38 C38         1.5703    2.6622    4.5357 C.3       1 UNK         0.0000 
     39 O39         1.1404    3.8131    5.2491 O.3       1 UNK         0.0000 
     40 N40        -0.1479    2.9335    2.7210 N.am      1 UNK         0.0000 
     41 C41        -1.2470    3.6739    2.9225 C.2       1 UNK         0.0000 
     42 O42        -1.9838    3.5518    3.9070 O.2       1 UNK         0.0000 
     43 C43        -1.4662    4.8593    1.9507 C.3       1 UNK         0.0000 
     44 H44        -2.5474    5.0134    1.8932 H         1 UNK         0.0000 
     45 C45        -0.7761    6.1017    2.5793 C.3       1 UNK         0.0000 
     46 C46        -0.9146    7.4228    1.8041 C.3       1 UNK         0.0000 
     47 C47        -0.0453    8.5158    2.4633 C.3       1 UNK         0.0000 
     48 N48         0.0822    9.7121    1.6046 N.pl3     1 UNK         0.0000 
     49 C49        -0.0851   11.0077    1.9406 C.cat     1 UNK         0.0000 
     50 N50         0.1754   11.9621    1.0441 N.pl3     1 UNK         0.0000 
     51 N51        -0.5151   11.3564    3.1499 N.pl3     1 UNK         0.0000 
     52 H52        -0.7360   10.6564    3.8450 H         1 UNK         0.0000 
     53 H53        -0.6799   12.3152    3.4321 H         1 UNK         0.0000 
     54 N54        -0.9127    4.6298    0.6115 N.am      1 UNK         0.0000 
     55 C55        -1.5260    3.9731   -0.3868 C.2       1 UNK         0.0000 
     56 O56        -2.6845    3.5830   -0.2848 O.2       1 UNK         0.0000 
     57 C57        -0.6103    3.8010   -1.6040 C.ar      1 UNK         0.0000 
     58 C58        -0.5849    2.6267   -2.4063 C.ar      1 UNK         0.0000 
     59 O59        -1.4514    1.6865   -2.3697 O.co2     1 UNK         0.0000 
     60 C60         0.5039    2.4356   -3.2805 C.ar      1 UNK         0.0000 
     61 O61         0.6615    1.3190   -3.8210 O.co2     1 UNK         0.0000 
     62 C62         1.4577    3.4141   -3.4865 C.ar      1 UNK         0.0000 
     63 C63         1.3550    4.6213   -2.8128 C.ar      1 UNK         0.0000 
     64 C64         0.3427    4.8000   -1.8741 C.ar      1 UNK         0.0000 
     65 H65        -1.2850   -5.9373   -3.2641 H         1 UNK         0.0000 
     66 H66         0.1952   -5.5402   -5.1666 H         1 UNK         0.0000 
     67 H67         0.8890   -3.2351   -5.7164 H         1 UNK         0.0000 
     68 H68        -2.0689   -6.0640   -1.1538 H         1 UNK         0.0000 
     69 H69         1.2170   -6.4375    0.3538 H         1 UNK         0.0000 
     70 H70         0.0727   -7.2013   -0.7246 H         1 UNK         0.0000 
     71 H71        -0.4657   -6.4933    2.2120 H         1 UNK         0.0000 
     72 H72        -1.6393   -7.2887    1.1949 H         1 UNK         0.0000 
     73 H73         0.2575   -9.1206    0.8015 H         1 UNK         0.0000 
     74 H74         1.1304   -8.2966    2.0813 H         1 UNK         0.0000 
     75 H75        -1.3471   -8.7764    3.1525 H         1 UNK         0.0000 
     76 H76        -1.6833  -10.6598    4.6122 H         1 UNK         0.0000 
     77 H77        -0.5891  -11.9759    4.5748 H         1 UNK         0.0000 
     78 H78         0.6554   -2.8096   -0.9369 H         1 UNK         0.0000 
     79 H79         0.2663   -1.8611    2.7995 H         1 UNK         0.0000 
     80 H80        -1.0278   -1.4830    1.6884 H         1 UNK         0.0000 
     81 H81         1.9676    1.9417    5.2532 H         1 UNK         0.0000 
     82 H82         2.4005    2.9523    3.8884 H         1 UNK         0.0000 
     83 H83         0.4964    3.5444    5.9177 H         1 UNK         0.0000 
     84 H84         0.3757    3.0889    1.8668 H         1 UNK         0.0000 
     85 H85         0.2931    5.8795    2.6920 H         1 UNK         0.0000 
     86 H86        -1.1482    6.2587    3.5969 H         1 UNK         0.0000 
     87 H87        -1.9669    7.7244    1.8376 H         1 UNK         0.0000 
     88 H88        -0.6573    7.3137    0.7445 H         1 UNK         0.0000 
     89 H89         0.9317    8.1424    2.7916 H         1 UNK         0.0000 
     90 H90        -0.5622    8.8216    3.3771 H         1 UNK         0.0000 
     91 H91         0.3890    9.4485    0.6733 H         1 UNK         0.0000 
     92 H92         0.0586   12.9460    1.2461 H         1 UNK         0.0000 
     93 H93         0.5210   11.7412    0.1221 H         1 UNK         0.0000 
     94 H94         0.0513    4.8379    0.4180 H         1 UNK         0.0000 
     95 H95         2.2657    3.2126   -4.1805 H         1 UNK         0.0000 
     96 H96         2.0891    5.3801   -3.0247 H         1 UNK         0.0000 
     97 H97         0.3302    5.7327   -1.3446 H         1 UNK         0.0000 
@<TRIPOS>BOND
     1    1    6 nc   
     2    1    8 nc   
     3    1   30 nc   
     4    1   31 nc   
     5    1   59 nc   
     6    1   61 nc   
     7    2   65 1    
     8    2    9 ar   
     9    2    3 ar   
    10    3    4 ar   
    11    3   66 1    
    12    4    5 ar   
    13    4   67 1    
    14    5    7 ar   
    15    5    6 1    
    16    7    8 1    
    17    7    9 ar   
    18    9   10 1    
    19   10   11 2    
    20   10   12 am   BACKBONE|DICT|INTERRES
    21   12   13 1    
    22   12   68 1    
    23   13   14 1    
    24   13   15 1    
    25   13   24 1    
    26   15   69 1    
    27   15   16 1    
    28   15   70 1    
    29   16   17 1    
    30   16   71 1    
    31   16   72 1    
    32   17   74 1    
    33   17   18 1    
    34   17   73 1    
    35   18   19 ar   
    36   18   75 1    
    37   19   20 ar   
    38   19   21 ar   
    39   20   77 1    
    40   20   76 1    
    41   21   22 1    
    42   21   23 1    
    43   24   25 2    
    44   24   26 am   BACKBONE|DICT|INTERRES
    45   26   27 1    
    46   26   78 1    
    47   27   28 1    
    48   27   32 1    
    49   27   29 1    
    50   29   30 2    
    51   29   31 1    
    52   32   33 1    
    53   32   79 1    
    54   32   80 1    
    55   33   34 1    
    56   34   35 2    
    57   34   36 1    
    58   36   37 1    
    59   36   38 1    
    60   36   40 1    
    61   38   81 1    
    62   38   39 1    
    63   38   82 1    
    64   39   83 1    
    65   40   41 am   BACKBONE|DICT|INTERRES
    66   40   84 1    
    67   41   42 2    
    68   41   43 1    
    69   43   44 1    
    70   43   45 1    
    71   43   54 1    
    72   45   85 1    
    73   45   86 1    
    74   45   46 1    
    75   46   47 1    
    76   46   87 1    
    77   46   88 1    
    78   47   89 1    
    79   47   90 1    
    80   47   48 1    
    81   48   49 ar   
    82   48   91 1    
    83   49   51 ar   
    84   49   50 ar   
    85   50   92 1    
    86   50   93 1    
    87   51   53 1    
    88   51   52 1    
    89   54   55 am   BACKBONE|DICT|INTERRES
    90   54   94 1    
    91   55   56 2    
    92   55   57 1    
    93   57   58 ar   
    94   57   64 ar   
    95   58   59 1    
    96   58   60 ar   
    97   60   61 1    
    98   60   62 ar   
    99   62   63 ar   
   100   62   95 1    
   101   63   64 ar   
   102   63   96 1    
   103   64   97 1    
@<TRIPOS>SUBSTRUCTURE
     1 UNK         1 GROUP             0       ****    0 ROOT    
