@<TRIPOS>MOLECULE
107_c2
100   105    1
SMALL
USER_CHARGES


@<TRIPOS>ATOM
      1 Fe1        -0.1417   -3.4392   -0.0083 Fe        1 UNK         0.0000 
      2 O2         -3.4519   -5.4247    2.4657 O.2       1 UNK         0.0000 
      3 C3         -2.3996   -5.5795    3.0730 C.2       1 UNK         0.0000 
      4 C4         -2.0361   -4.5865    4.2011 C.3       1 UNK         0.0000 
      5 C5         -2.1081   -3.0560    3.8574 C.3       1 UNK         0.0000 
      6 C6         -1.3414   -2.6479    2.5870 C.2       1 UNK         0.0000 
      7 O7         -1.7351   -3.0710    1.4952 O.co2     1 UNK         0.0000 
      8 N8         -0.1506   -1.9884    2.6076 N.am      1 UNK         0.0000 
      9 O9          0.6725   -2.0004    1.5562 O.co2     1 UNK         0.0000 
     10 C10         0.2657   -1.0297    3.6513 C.3       1 UNK         0.0000 
     11 C11         0.9797    0.2314    3.0791 C.3       1 UNK         0.0000 
     12 C12         0.9915    1.4847    3.9575 C.3       1 UNK         0.0000 
     13 C13         1.5966    2.6628    3.1665 C.3       1 UNK         0.0000 
     14 C14         1.3667    4.0248    3.8310 C.3       1 UNK         0.0000 
     15 N15         1.7545    5.1230    2.9458 N.am      1 UNK         0.0000 
     16 C16         0.9033    5.7724    2.1407 C.2       1 UNK         0.0000 
     17 O17        -0.2971    5.5207    2.1103 O.2       1 UNK         0.0000 
     18 C18         1.5180    6.8336    1.2222 C.3       1 UNK         0.0000 
     19 C19         0.5371    7.5541    0.2541 C.3       1 UNK         0.0000 
     20 C20        -0.0678    6.6774   -0.8654 C.2       1 UNK         0.0000 
     21 O21        -1.2709    6.4268   -0.8209 O.2       1 UNK         0.0000 
     22 N22         0.7085    6.2417   -1.8940 N.am      1 UNK         0.0000 
     23 O23         2.0644    6.6386   -1.9183 O.3       1 UNK         0.0000 
     24 C24         0.2434    5.4820   -3.0638 C.3       1 UNK         0.0000 
     25 C25         1.0109    4.1723   -3.3321 C.3       1 UNK         0.0000 
     26 C26         0.8656    3.1010   -2.2351 C.3       1 UNK         0.0000 
     27 N27         1.4442    1.8259   -2.6726 N.am      1 UNK         0.0000 
     28 C28         0.7331    0.7966   -3.1546 C.2       1 UNK         0.0000 
     29 O29        -0.4932    0.8127   -3.2270 O.2       1 UNK         0.0000 
     30 C30         1.5283   -0.4227   -3.6345 C.3       1 UNK         0.0000 
     31 C31         0.6688   -1.6807   -3.9582 C.3       1 UNK         0.0000 
     32 C32        -0.0074   -2.3387   -2.7449 C.2       1 UNK         0.0000 
     33 O33         0.3338   -1.9908   -1.6176 O.co2     1 UNK         0.0000 
     34 N34        -0.9211   -3.3471   -2.8429 N.am      1 UNK         0.0000 
     35 O35        -1.4619   -3.9420   -1.7751 O.co2     1 UNK         0.0000 
     36 C36        -1.4469   -3.8383   -4.1178 C.3       1 UNK         0.0000 
     37 C37        -0.4892   -4.7470   -4.9211 C.3       1 UNK         0.0000 
     38 C38         0.0834   -6.0047   -4.2155 C.3       1 UNK         0.0000 
     39 N39         1.1755   -5.8000   -3.2448 N.am      1 UNK         0.0000 
     40 C40         2.4066   -5.3411   -3.5288 C.2       1 UNK         0.0000 
     41 O41         2.7124   -4.9757   -4.6621 O.2       1 UNK         0.0000 
     42 C42         3.4755   -5.2417   -2.4104 C.3       1 UNK         0.0000 
     43 C43         3.1749   -5.8343   -0.9843 C.3       1 UNK         0.0000 
     44 C44         2.0396   -5.1047   -0.2531 C.2       1 UNK         0.0000 
     45 O45         1.6967   -3.9808   -0.6076 O.co2     1 UNK         0.0000 
     46 N46         1.2029   -5.6731    0.6439 N.am      1 UNK         0.0000 
     47 O47         0.0083   -5.1301    0.8082 O.co2     1 UNK         0.0000 
     48 C48         1.6990   -6.4148    1.8257 C.3       1 UNK         0.0000 
     49 C49         0.7667   -7.5365    2.3677 C.3       1 UNK         0.0000 
     50 C50        -0.3843   -7.1440    3.3470 C.3       1 UNK         0.0000 
     51 N51        -1.6040   -6.6058    2.7223 N.am      1 UNK         0.0000 
     52 H52        -2.7431   -4.7787    5.0012 H         1 UNK         0.0000 
     53 H53        -1.0893   -4.8103    4.6766 H         1 UNK         0.0000 
     54 H54        -3.1466   -2.7461    3.7638 H         1 UNK         0.0000 
     55 H55        -1.7678   -2.4879    4.7238 H         1 UNK         0.0000 
     56 H56         0.9193   -1.5269    4.3732 H         1 UNK         0.0000 
     57 H57        -0.6095   -0.7019    4.2120 H         1 UNK         0.0000 
     58 H58         0.5050    0.4979    2.1290 H         1 UNK         0.0000 
     59 H59         2.0114   -0.0347    2.8366 H         1 UNK         0.0000 
     60 H60        -0.0335    1.7349    4.2423 H         1 UNK         0.0000 
     61 H61         1.5502    1.3222    4.8819 H         1 UNK         0.0000 
     62 H62         2.6666    2.5088    3.0067 H         1 UNK         0.0000 
     63 H63         1.1527    2.6967    2.1675 H         1 UNK         0.0000 
     64 H64         1.8980    4.0863    4.7810 H         1 UNK         0.0000 
     65 H65         0.3111    4.1044    4.1087 H         1 UNK         0.0000 
     66 H66         2.7236    5.3970    2.9275 H         1 UNK         0.0000 
     67 H67         2.3993    6.4594    0.7012 H         1 UNK         0.0000 
     68 H68         1.9182    7.5931    1.8925 H         1 UNK         0.0000 
     69 H69        -0.2369    8.0830    0.8123 H         1 UNK         0.0000 
     70 H70         1.0722    8.3648   -0.2401 H         1 UNK         0.0000 
     71 H71         2.0934    7.3162   -2.6001 H         1 UNK         0.0000 
     72 H72        -0.8139    5.2264   -2.9454 H         1 UNK         0.0000 
     73 H73         0.2861    6.1308   -3.9399 H         1 UNK         0.0000 
     74 H74         2.0669    4.3885   -3.5057 H         1 UNK         0.0000 
     75 H75         0.6312    3.7598   -4.2695 H         1 UNK         0.0000 
     76 H76        -0.1916    2.9916   -1.9690 H         1 UNK         0.0000 
     77 H77         1.3327    3.4346   -1.3062 H         1 UNK         0.0000 
     78 H78         2.4455    1.7268   -2.6182 H         1 UNK         0.0000 
     79 H79         2.0267   -0.1123   -4.5485 H         1 UNK         0.0000 
     80 H80         2.3525   -0.6754   -2.9737 H         1 UNK         0.0000 
     81 H81         1.3549   -2.4287   -4.3495 H         1 UNK         0.0000 
     82 H82        -0.0174   -1.4932   -4.7774 H         1 UNK         0.0000 
     83 H83        -1.8013   -2.9952   -4.7199 H         1 UNK         0.0000 
     84 H84        -2.3548   -4.4204   -3.9308 H         1 UNK         0.0000 
     85 H85         0.3051   -4.1578   -5.3689 H         1 UNK         0.0000 
     86 H86        -1.0720   -5.0941   -5.7676 H         1 UNK         0.0000 
     87 H87        -0.7283   -6.4955   -3.6731 H         1 UNK         0.0000 
     88 H88         0.4037   -6.7264   -4.9725 H         1 UNK         0.0000 
     89 H89         0.9765   -6.0904   -2.3002 H         1 UNK         0.0000 
     90 H90         4.3550   -5.7471   -2.8201 H         1 UNK         0.0000 
     91 H91         3.8185   -4.2090   -2.3363 H         1 UNK         0.0000 
     92 H92         3.0543   -6.9125   -1.0238 H         1 UNK         0.0000 
     93 H93         4.0747   -5.7025   -0.3867 H         1 UNK         0.0000 
     94 H94         2.6936   -6.8165    1.6540 H         1 UNK         0.0000 
     95 H95         1.8691   -5.6927    2.6253 H         1 UNK         0.0000 
     96 H96         1.4072   -8.2095    2.9469 H         1 UNK         0.0000 
     97 H97         0.3913   -8.1391    1.5417 H         1 UNK         0.0000 
     98 H98        -0.6773   -8.0347    3.9113 H         1 UNK         0.0000 
     99 H99         0.0231   -6.4599    4.0913 H         1 UNK         0.0000 
    100 H100       -1.9397   -7.0852    1.8973 H         1 UNK         0.0000 
@<TRIPOS>BOND
     1    1    7 nc   
     2    1    9 nc   
     3    1   33 nc   
     4    1   35 nc   
     5    1   45 nc   
     6    1   47 nc   
     7    2    3 2    
     8    3    4 1    
     9    3   51 am   BACKBONE|DICT|INTERRES
    10    4   53 1    
    11    4   52 1    
    12    4    5 1    
    13    5   55 1    
    14    5    6 1    
    15    5   54 1    
    16    6    7 2    
    17    6    8 am   BACKBONE|DICT|INTERRES
    18    8   10 1    
    19    8    9 1    
    20   10   57 1    
    21   10   56 1    
    22   10   11 1    
    23   11   12 1    
    24   11   58 1    
    25   11   59 1    
    26   12   60 1    
    27   12   61 1    
    28   12   13 1    
    29   13   14 1    
    30   13   62 1    
    31   13   63 1    
    32   14   65 1    
    33   14   64 1    
    34   14   15 1    
    35   15   16 am   BACKBONE|DICT|INTERRES
    36   15   66 1    
    37   16   17 2    
    38   16   18 1    
    39   18   68 1    
    40   18   19 1    
    41   18   67 1    
    42   19   69 1    
    43   19   20 1    
    44   19   70 1    
    45   20   21 2    
    46   20   22 am   BACKBONE|DICT|INTERRES
    47   22   23 1    
    48   22   24 1    
    49   23   71 1    
    50   24   72 1    
    51   24   25 1    
    52   24   73 1    
    53   25   26 1    
    54   25   74 1    
    55   25   75 1    
    56   26   76 1    
    57   26   77 1    
    58   26   27 1    
    59   27   28 am   BACKBONE|DICT|INTERRES
    60   27   78 1    
    61   28   29 2    
    62   28   30 1    
    63   30   80 1    
    64   30   31 1    
    65   30   79 1    
    66   31   32 1    
    67   31   81 1    
    68   31   82 1    
    69   32   33 2    
    70   32   34 am   BACKBONE|DICT|INTERRES
    71   34   35 1    
    72   34   36 1    
    73   36   84 1    
    74   36   37 1    
    75   36   83 1    
    76   37   38 1    
    77   37   85 1    
    78   37   86 1    
    79   38   87 1    
    80   38   39 1    
    81   38   88 1    
    82   39   89 1    
    83   39   40 am   BACKBONE|DICT|INTERRES
    84   40   42 1    
    85   40   41 2    
    86   42   91 1    
    87   42   43 1    
    88   42   90 1    
    89   43   93 1    
    90   43   44 1    
    91   43   92 1    
    92   44   46 am   BACKBONE|DICT|INTERRES
    93   44   45 2    
    94   46   48 1    
    95   46   47 1    
    96   48   49 1    
    97   48   95 1    
    98   48   94 1    
    99   49   96 1    
   100   49   50 1    
   101   49   97 1    
   102   50   98 1    
   103   50   99 1    
   104   50   51 1    
   105   51  100 1    
@<TRIPOS>SUBSTRUCTURE
     1 UNK         1 GROUP             0       ****    0 ROOT    
