@<TRIPOS>MOLECULE
184_P_c1
135   142    1
SMALL
USER_CHARGES


@<TRIPOS>ATOM
      1 O1          8.3011    6.2039   -4.8397 O.co2     1 UNK         0.0000 
      2 N2          7.0629    5.7214   -4.5373 N.am      1 UNK         0.0000 
      3 C3          6.7115    4.5066   -5.2956 C.3       1 UNK         0.0000 
      4 C4          6.0108    3.3691   -4.5454 C.3       1 UNK         0.0000 
      5 C5          4.5824    3.6994   -4.1199 C.3       1 UNK         0.0000 
      6 C6          4.5700    4.6126   -2.8982 C.3       1 UNK         0.0000 
      7 C7          4.9392    6.0966   -3.1264 C.3       1 UNK         0.0000 
      8 H8          4.0716    6.5540   -3.6159 H         1 UNK         0.0000 
      9 C9          6.1349    6.5845   -4.0070 C.2       1 UNK         0.0000 
     10 O10         6.3237    7.8040   -4.1098 O.co2     1 UNK         0.0000 
     11 N11         5.1612    6.7196   -1.8066 N.am      1 UNK         0.0000 
     12 C12         4.4392    7.6688   -1.1823 C.2       1 UNK         0.0000 
     13 O13         3.4485    8.1702   -1.7064 O.2       1 UNK         0.0000 
     14 C14         4.8826    8.1210    0.2431 C.3       1 UNK         0.0000 
     15 H15         4.0285    7.8692    0.8755 H         1 UNK         0.0000 
     16 C16         6.0936    7.3243    0.7953 C.3       1 UNK         0.0000 
     17 C17         5.0974    9.6663    0.3619 C.3       1 UNK         0.0000 
     18 H18         4.1295   10.1131    0.1189 H         1 UNK         0.0000 
     19 C19         5.4231   10.2148    1.7841 C.3       1 UNK         0.0000 
     20 C20         4.3722    9.8796    2.8589 C.3       1 UNK         0.0000 
     21 O21         5.9145   10.0959   -0.7250 O.3       1 UNK         0.0000 
     22 C22         7.0413   10.8631   -0.7517 C.2       1 UNK         0.0000 
     23 O23         7.7232   11.1457    0.2321 O.2       1 UNK         0.0000 
     24 C24         7.3582   11.3570   -2.1839 C.3       1 UNK         0.0000 
     25 H25         7.4469   12.4463   -2.1384 H         1 UNK         0.0000 
     26 N26         8.6985   10.7725   -2.5505 N.am      1 UNK         0.0000 
     27 C27         9.7966   11.4459   -3.0146 C.2       1 UNK         0.0000 
     28 O28         9.8349   12.6681   -2.9553 O.2       1 UNK         0.0000 
     29 C29        11.0449   10.6878   -3.6621 C.3       1 UNK         0.0000 
     30 H30        11.8591   11.4162   -3.7380 H         1 UNK         0.0000 
     31 N31        11.4465    9.6061   -2.8247 N.2       1 UNK         0.0000 
     32 C32        10.9171    8.5710   -3.3532 C.2       1 UNK         0.0000 
     33 O33        10.2374    8.7345   -4.5650 O.3       1 UNK         0.0000 
     34 C34        10.8538    9.9551   -5.0177 C.3       1 UNK         0.0000 
     35 C35        10.7050    7.3591   -2.6165 C.ar      1 UNK         0.0000 
     36 C36        11.7520    6.5147   -2.1913 C.ar      1 UNK         0.0000 
     37 C37        13.2098    6.7027   -2.6068 C.3       1 UNK         0.0000 
     38 C38        11.4471    5.4665   -1.3201 C.ar      1 UNK         0.0000 
     39 C39        10.1350    5.2662   -0.8921 C.ar      1 UNK         0.0000 
     40 C40         9.1094    6.1135   -1.3210 C.ar      1 UNK         0.0000 
     41 C41         9.3788    7.1745   -2.1785 C.ar      1 UNK         0.0000 
     42 O42         8.4214    7.9545   -2.5683 O.co2     1 UNK         0.0000 
     43 C43         6.1272   11.0239   -3.1638 C.3       1 UNK         0.0000 
     44 C44         5.7773   11.8462   -4.4291 C.3       1 UNK         0.0000 
     45 C45         4.9620   11.0910   -5.5656 C.3       1 UNK         0.0000 
     46 C46         5.4616    9.7607   -6.3053 C.3       1 UNK         0.0000 
     47 N47         6.9105    9.5449   -6.6078 N.am      1 UNK         0.0000 
     48 O48         7.3920    8.3028   -6.5378 O.co2     1 UNK         0.0000 
     49 C49         7.7002   10.5139   -6.2225 C.2       1 UNK         0.0000 
     50 O50         8.2289   10.2712   -5.1354 O.co2     1 UNK         0.0000 
     51 C51         7.7127   11.6877   -7.0819 C.2       1 UNK         0.0000 
     52 C52         8.3132   12.8772   -6.8978 C.2       1 UNK         0.0000 
     53 C53         9.1903   13.3426   -5.7602 C.3       1 UNK         0.0000 
     54 C54         9.8263   14.7059   -6.0410 C.3       1 UNK         0.0000 
     55 C55        10.8334   15.1850   -4.9847 C.3       1 UNK         0.0000 
     56 C56        11.4644   16.5064   -5.4353 C.3       1 UNK         0.0000 
     57 C57        12.5272   17.0560   -4.4811 C.3       1 UNK         0.0000 
     58 C58        13.1686   18.3222   -5.0673 C.3       1 UNK         0.0000 
     59 C59        14.2733   18.9209   -4.1894 C.3       1 UNK         0.0000 
     60 C60        14.9304   20.1256   -4.8780 C.3       1 UNK         0.0000 
     61 C61        16.0535   20.7578   -4.0497 C.3       1 UNK         0.0000 
     62 C62        16.7309   21.9139   -4.8050 C.3       1 UNK         0.0000 
     63 C63        17.9082   22.5494   -4.0475 C.3       1 UNK         0.0000 
     64 C64        17.4908   23.2919   -2.7659 C.3       1 UNK         0.0000 
     65 C65        18.6789   23.9876   -2.0801 C.3       1 UNK         0.0000 
     66 C66        18.3093   24.7233   -0.7797 C.3       1 UNK         0.0000 
     67 C67        17.3615   25.9139   -0.9855 C.3       1 UNK         0.0000 
     68 H68         7.6118    4.0825   -5.7532 H         1 UNK         0.0000 
     69 H69         6.0945    4.7965   -6.1498 H         1 UNK         0.0000 
     70 H70         6.6160    3.0507   -3.6933 H         1 UNK         0.0000 
     71 H71         5.9614    2.5045   -5.2123 H         1 UNK         0.0000 
     72 H72         4.0716    2.7671   -3.8625 H         1 UNK         0.0000 
     73 H73         4.0091    4.1378   -4.9435 H         1 UNK         0.0000 
     74 H74         5.1927    4.1731   -2.1130 H         1 UNK         0.0000 
     75 H75         3.5515    4.6032   -2.4982 H         1 UNK         0.0000 
     76 H76         6.0027    6.4255   -1.3329 H         1 UNK         0.0000 
     77 H77         5.9250    6.2471    0.7240 H         1 UNK         0.0000 
     78 H78         6.2734    7.5411    1.8492 H         1 UNK         0.0000 
     79 H79         7.0037    7.5719    0.2452 H         1 UNK         0.0000 
     80 H80         6.4046    9.8622    2.1044 H         1 UNK         0.0000 
     81 H81         5.5030   11.3028    1.7255 H         1 UNK         0.0000 
     82 H82         4.2904    8.8048    3.0283 H         1 UNK         0.0000 
     83 H83         3.3852   10.2578    2.5865 H         1 UNK         0.0000 
     84 H84         4.6442   10.3347    3.8131 H         1 UNK         0.0000 
     85 H85         8.8355    9.7957   -2.2676 H         1 UNK         0.0000 
     86 H86        10.3955   10.5059   -5.8294 H         1 UNK         0.0000 
     87 H87        11.8356    9.7262   -5.4466 H         1 UNK         0.0000 
     88 H88        13.3643    7.4851   -3.3522 H         1 UNK         0.0000 
     89 H89        13.5847    5.7711   -3.0336 H         1 UNK         0.0000 
     90 H90        13.8332    6.9419   -1.7409 H         1 UNK         0.0000 
     91 H91        12.2302    4.8085   -0.9730 H         1 UNK         0.0000 
     92 H92         9.9144    4.4627   -0.2033 H         1 UNK         0.0000 
     93 H93         8.1031    5.9447   -0.9792 H         1 UNK         0.0000 
     94 H94         5.1971   11.1916   -2.6170 H         1 UNK         0.0000 
     95 H95         6.0938    9.9653   -3.3717 H         1 UNK         0.0000 
     96 H96         5.1564   12.6952   -4.1211 H         1 UNK         0.0000 
     97 H97         6.6566   12.3571   -4.7969 H         1 UNK         0.0000 
     98 H98         4.8084   11.8299   -6.3537 H         1 UNK         0.0000 
     99 H99         3.9523   10.8927   -5.1997 H         1 UNK         0.0000 
    100 H100        4.9477    9.7084   -7.2705 H         1 UNK         0.0000 
    101 H101        5.0548    8.9060   -5.7662 H         1 UNK         0.0000 
    102 H102        7.1324   11.5614   -7.9850 H         1 UNK         0.0000 
    103 H103        8.1518   13.6229   -7.6680 H         1 UNK         0.0000 
    104 H104        9.9754   12.6069   -5.6111 H         1 UNK         0.0000 
    105 H105        8.5719   13.4131   -4.8665 H         1 UNK         0.0000 
    106 H106        9.0349   15.4539   -6.1449 H         1 UNK         0.0000 
    107 H107       10.3302   14.6546   -7.0095 H         1 UNK         0.0000 
    108 H108       11.6107   14.4317   -4.8344 H         1 UNK         0.0000 
    109 H109       10.3351   15.3088   -4.0200 H         1 UNK         0.0000 
    110 H110       10.6806   17.2556   -5.5629 H         1 UNK         0.0000 
    111 H111       11.9159   16.3669   -6.4197 H         1 UNK         0.0000 
    112 H112       13.3020   16.3063   -4.3075 H         1 UNK         0.0000 
    113 H113       12.0791   17.2771   -3.5099 H         1 UNK         0.0000 
    114 H114       12.3984   19.0789   -5.2399 H         1 UNK         0.0000 
    115 H115       13.5883   18.0868   -6.0493 H         1 UNK         0.0000 
    116 H116       15.0292   18.1600   -3.9801 H         1 UNK         0.0000 
    117 H117       13.8551   19.2201   -3.2252 H         1 UNK         0.0000 
    118 H118       15.3283   19.8097   -5.8452 H         1 UNK         0.0000 
    119 H119       14.1697   20.8810   -5.0898 H         1 UNK         0.0000 
    120 H120       15.6393   21.1124   -3.1039 H         1 UNK         0.0000 
    121 H121       16.7986   19.9978   -3.8005 H         1 UNK         0.0000 
    122 H122       15.9913   22.6820   -5.0462 H         1 UNK         0.0000 
    123 H123       17.0990   21.5398   -5.7639 H         1 UNK         0.0000 
    124 H124       18.4051   23.2536   -4.7187 H         1 UNK         0.0000 
    125 H125       18.6482   21.7811   -3.8118 H         1 UNK         0.0000 
    126 H126       16.7243   24.0270   -3.0191 H         1 UNK         0.0000 
    127 H127       17.0336   22.5939   -2.0623 H         1 UNK         0.0000 
    128 H128       19.1481   24.6883   -2.7741 H         1 UNK         0.0000 
    129 H129       19.4388   23.2369   -1.8486 H         1 UNK         0.0000 
    130 H130       17.8658   24.0223   -0.0692 H         1 UNK         0.0000 
    131 H131       19.2267   25.0877   -0.3127 H         1 UNK         0.0000 
    132 H132       16.3869   25.5940   -1.3555 H         1 UNK         0.0000 
    133 H133       17.7753   26.6299   -1.6977 H         1 UNK         0.0000 
    134 H134       17.1949   26.4410   -0.0444 H         1 UNK         0.0000 
    135 Fe135       8.1617    8.2133   -4.6268 Fe        1 UNK         0.0000 
@<TRIPOS>BOND
     1    1    2 1    
     2    1  135 nc   
     3    2    3 1    
     4    2    9 am   BACKBONE|DICT|INTERRES
     5    3    4 1    
     6    3   68 1    
     7    3   69 1    
     8    4    5 1    
     9    4   70 1    
    10    4   71 1    
    11    5    6 1    
    12    5   72 1    
    13    5   73 1    
    14    6    7 1    
    15    6   74 1    
    16    6   75 1    
    17    7    9 1    
    18    7   11 1    
    19    7    8 1    
    20    9   10 2    
    21   10  135 nc   
    22   11   12 am   BACKBONE|DICT|INTERRES
    23   11   76 1    
    24   12   13 2    
    25   12   14 1    
    26   14   15 1    
    27   14   16 1    
    28   14   17 1    
    29   16   77 1    
    30   16   78 1    
    31   16   79 1    
    32   17   18 1    
    33   17   19 1    
    34   17   21 1    
    35   19   20 1    
    36   19   80 1    
    37   19   81 1    
    38   20   82 1    
    39   20   83 1    
    40   20   84 1    
    41   21   22 1    
    42   22   23 2    
    43   22   24 1    
    44   24   25 1    
    45   24   26 1    
    46   24   43 1    
    47   26   27 am   BACKBONE|DICT|INTERRES
    48   26   85 1    
    49   27   28 2    
    50   27   29 1    
    51   29   30 1    
    52   29   31 1    
    53   29   34 1    
    54   31   32 2    
    55   32   33 1    
    56   32   35 1    
    57   33   34 1    
    58   33  135 nc   
    59   34   86 1    
    60   34   87 1    
    61   35   36 ar   
    62   35   41 ar   
    63   36   37 1    
    64   36   38 ar   
    65   37   88 1    
    66   37   89 1    
    67   37   90 1    
    68   38   39 ar   
    69   38   91 1    
    70   39   40 ar   
    71   39   92 1    
    72   40   41 ar   
    73   40   93 1    
    74   41   42 1    
    75   42  135 nc   
    76   43   44 1    
    77   43   94 1    
    78   43   95 1    
    79   44   45 1    
    80   44   96 1    
    81   44   97 1    
    82   45   46 1    
    83   45   98 1    
    84   45   99 1    
    85   46   47 1    
    86   46  100 1    
    87   46  101 1    
    88   47   48 1    
    89   47   49 am   BACKBONE|DICT|INTERRES
    90   48  135 nc   
    91   49   50 2    
    92   49   51 1    
    93   50  135 nc   
    94   51   52 2    
    95   51  102 1    
    96   52   53 1    
    97   52  103 1    
    98   53   54 1    
    99   53  104 1    
   100   53  105 1    
   101   54   55 1    
   102   54  106 1    
   103   54  107 1    
   104   55   56 1    
   105   55  108 1    
   106   55  109 1    
   107   56   57 1    
   108   56  110 1    
   109   56  111 1    
   110   57   58 1    
   111   57  112 1    
   112   57  113 1    
   113   58   59 1    
   114   58  114 1    
   115   58  115 1    
   116   59   60 1    
   117   59  116 1    
   118   59  117 1    
   119   60   61 1    
   120   60  118 1    
   121   60  119 1    
   122   61   62 1    
   123   61  120 1    
   124   61  121 1    
   125   62   63 1    
   126   62  122 1    
   127   62  123 1    
   128   63   64 1    
   129   63  124 1    
   130   63  125 1    
   131   64   65 1    
   132   64  126 1    
   133   64  127 1    
   134   65   66 1    
   135   65  128 1    
   136   65  129 1    
   137   66   67 1    
   138   66  130 1    
   139   66  131 1    
   140   67  132 1    
   141   67  133 1    
   142   67  134 1    
@<TRIPOS>SUBSTRUCTURE
     1 UNK         1 GROUP             0       ****    0 ROOT    
