@<TRIPOS>MOLECULE
059_c1
121   126    1
SMALL
USER_CHARGES


@<TRIPOS>ATOM
      1 Fe1        -0.4114   -3.4745   -0.9746 Fe        1 UNK         0.0000 
      2 C2         -3.6711   -3.2202   -4.0196 C.3       1 UNK         0.0000 
      3 C3         -2.5463   -2.9206   -3.0372 C.2       1 UNK         0.0000 
      4 O4         -2.1559   -3.7379   -2.1879 O.co2     1 UNK         0.0000 
      5 N5         -1.8878   -1.7383   -3.0095 N.am      1 UNK         0.0000 
      6 O6         -0.9572   -1.6348   -2.0914 O.co2     1 UNK         0.0000 
      7 C7         -2.0582   -0.6017   -3.9421 C.3       1 UNK         0.0000 
      8 C8         -0.9835    0.5305   -3.9375 C.3       1 UNK         0.0000 
      9 C9         -0.9009    1.3665   -2.6285 C.3       1 UNK         0.0000 
     10 C10         0.0368    2.6072   -2.6754 C.3       1 UNK         0.0000 
     11 H11        -0.1422    3.0194   -3.6697 H         1 UNK         0.0000 
     12 C12        -0.4057    3.7743   -1.7621 C.2       1 UNK         0.0000 
     13 O13        -1.2404    3.5664   -0.8949 O.2       1 UNK         0.0000 
     14 N14         0.1130    4.9808   -2.0508 N.am      1 UNK         0.0000 
     15 C15        -0.4345    6.2975   -1.6707 C.3       1 UNK         0.0000 
     16 H16         0.1942    7.0396   -2.1658 H         1 UNK         0.0000 
     17 C17        -1.8551    6.4494   -2.2568 C.3       1 UNK         0.0000 
     18 O18        -1.7830    6.3968   -3.6802 O.3       1 UNK         0.0000 
     19 C19        -0.4218    6.6263   -0.1594 C.2       1 UNK         0.0000 
     20 O20        -1.2440    6.1019    0.5773 O.2       1 UNK         0.0000 
     21 N21         0.4763    7.5494    0.2412 N.am      1 UNK         0.0000 
     22 C22         0.5891    8.2047    1.5639 C.3       1 UNK         0.0000 
     23 H23         1.6619    8.3645    1.6761 H         1 UNK         0.0000 
     24 C24        -0.0416    9.6202    1.5315 C.3       1 UNK         0.0000 
     25 O25        -1.3307    9.6487    0.9256 O.3       1 UNK         0.0000 
     26 C26         0.2497    7.3574    2.8150 C.2       1 UNK         0.0000 
     27 O27        -0.4228    7.8264    3.7344 O.2       1 UNK         0.0000 
     28 N28         0.7948    6.1377    2.8255 N.am      1 UNK         0.0000 
     29 C29         0.5000    5.1102    3.8198 C.3       1 UNK         0.0000 
     30 C30         0.2708    3.8014    3.0536 C.2       1 UNK         0.0000 
     31 O31        -0.7366    3.6596    2.3730 O.2       1 UNK         0.0000 
     32 N32         1.1944    2.8443    3.1701 N.am      1 UNK         0.0000 
     33 C33         1.1823    1.5811    2.4286 C.3       1 UNK         0.0000 
     34 H34         0.4647    1.6359    1.6082 H         1 UNK         0.0000 
     35 C35         0.8026    0.3992    3.3816 C.3       1 UNK         0.0000 
     36 C36         0.5719   -0.8726    2.5708 C.3       1 UNK         0.0000 
     37 C37        -0.1255   -2.1682    3.1401 C.3       1 UNK         0.0000 
     38 N38        -0.4742   -3.1232    2.0391 N.am      1 UNK         0.0000 
     39 O39        -0.4177   -2.5936    0.8443 O.co2     1 UNK         0.0000 
     40 C40        -0.7891   -4.4542    1.9877 C.2       1 UNK         0.0000 
     41 O41        -0.8314   -4.9051    0.8155 O.co2     1 UNK         0.0000 
     42 C42        -1.1807   -5.1799    3.1772 C.2       1 UNK         0.0000 
     43 C43        -1.6792   -6.4494    3.1868 C.2       1 UNK         0.0000 
     44 C44        -2.1387   -7.0833    4.4933 C.3       1 UNK         0.0000 
     45 C45        -1.8293   -7.3223    1.9193 C.3       1 UNK         0.0000 
     46 C46        -2.3515   -8.7637    2.0243 C.3       1 UNK         0.0000 
     47 O47        -3.7359   -8.7669    2.3092 O.3       1 UNK         0.0000 
     48 C48         2.6012    1.4592    1.8216 C.2       1 UNK         0.0000 
     49 O49         3.5467    1.6341    2.5873 O.2       1 UNK         0.0000 
     50 N50         2.8509    1.2173    0.5173 N.am      1 UNK         0.0000 
     51 C51         2.0606    0.8565   -0.6739 C.3       1 UNK         0.0000 
     52 H52         0.9961    0.8396   -0.4489 H         1 UNK         0.0000 
     53 C53         2.3884    1.8855   -1.7856 C.2       1 UNK         0.0000 
     54 O54         3.5698    2.1909   -1.9292 O.2       1 UNK         0.0000 
     55 N55         1.4923    2.3947   -2.6557 N.am      1 UNK         0.0000 
     56 C56         2.5611   -0.5589   -1.1298 C.3       1 UNK         0.0000 
     57 C57         2.2913   -1.0755   -2.5967 C.3       1 UNK         0.0000 
     58 C58         2.6052   -2.5964   -2.9438 C.3       1 UNK         0.0000 
     59 N59         1.7312   -3.6294   -2.3342 N.am      1 UNK         0.0000 
     60 O60         1.2571   -3.2651   -1.1738 O.co2     1 UNK         0.0000 
     61 C61         1.0435   -4.6746   -2.8828 C.2       1 UNK         0.0000 
     62 O62         0.1067   -4.9874   -2.1266 O.co2     1 UNK         0.0000 
     63 C63         1.2538   -5.2052   -4.2071 C.2       1 UNK         0.0000 
     64 C64         0.5937   -6.2750   -4.7487 C.2       1 UNK         0.0000 
     65 C65        -0.4254   -7.1803   -4.0296 C.3       1 UNK         0.0000 
     66 C66         0.8483   -6.6431   -6.2188 C.3       1 UNK         0.0000 
     67 C67         0.2069   -7.9497   -6.7501 C.3       1 UNK         0.0000 
     68 O68         0.5723   -8.1462   -8.1041 O.3       1 UNK         0.0000 
     69 H69        -3.3027   -3.2173   -5.0431 H         1 UNK         0.0000 
     70 H70        -4.1077   -4.1967   -3.8216 H         1 UNK         0.0000 
     71 H71        -4.4516   -2.4671   -3.9164 H         1 UNK         0.0000 
     72 H72        -3.0191   -0.1503   -3.7035 H         1 UNK         0.0000 
     73 H73        -2.1526   -0.9880   -4.9584 H         1 UNK         0.0000 
     74 H74        -1.2344    1.2134   -4.7449 H         1 UNK         0.0000 
     75 H75        -0.0163    0.1314   -4.2207 H         1 UNK         0.0000 
     76 H76        -0.6488    0.7585   -1.7678 H         1 UNK         0.0000 
     77 H77        -1.9185    1.6972   -2.4105 H         1 UNK         0.0000 
     78 H78         0.7931    5.0210   -2.7868 H         1 UNK         0.0000 
     79 H79        -2.2684    7.4190   -1.9694 H         1 UNK         0.0000 
     80 H80        -2.5419    5.6962   -1.8600 H         1 UNK         0.0000 
     81 H81        -1.8712    7.2844   -4.0278 H         1 UNK         0.0000 
     82 H82         1.0381    7.9780   -0.4716 H         1 UNK         0.0000 
     83 H83         0.5924   10.3028    0.9707 H         1 UNK         0.0000 
     84 H84        -0.0655   10.0418    2.5409 H         1 UNK         0.0000 
     85 H85        -1.9572   10.0617    1.5207 H         1 UNK         0.0000 
     86 H86         1.2196    5.8142    1.9730 H         1 UNK         0.0000 
     87 H87         1.3073    5.0340    4.5438 H         1 UNK         0.0000 
     88 H88        -0.4118    5.3281    4.3725 H         1 UNK         0.0000 
     89 H89         2.0430    2.9919    3.6931 H         1 UNK         0.0000 
     90 H90        -0.1192    0.6376    3.9110 H         1 UNK         0.0000 
     91 H91         1.5667    0.2218    4.1342 H         1 UNK         0.0000 
     92 H92         1.5095   -1.1668    2.1061 H         1 UNK         0.0000 
     93 H93        -0.0666   -0.4944    1.7770 H         1 UNK         0.0000 
     94 H94        -1.0459   -1.8760    3.6526 H         1 UNK         0.0000 
     95 H95         0.4970   -2.6309    3.9098 H         1 UNK         0.0000 
     96 H96        -3.2048   -7.3170    4.4359 H         1 UNK         0.0000 
     97 H97        -1.5891   -8.0022    4.7098 H         1 UNK         0.0000 
     98 H98        -2.0069   -6.4111    5.3431 H         1 UNK         0.0000 
     99 H99        -2.4538   -6.7999    1.1957 H         1 UNK         0.0000 
    100 H100       -0.8427   -7.3884    1.4645 H         1 UNK         0.0000 
    101 H101       -2.1932   -9.2690    1.0683 H         1 UNK         0.0000 
    102 H102       -1.7763   -9.3166    2.7656 H         1 UNK         0.0000 
    103 H103       -4.0526   -9.6707    2.3318 H         1 UNK         0.0000 
    104 H104        3.8214    1.3142    0.2624 H         1 UNK         0.0000 
    105 H105        1.9499    2.9181   -3.3785 H         1 UNK         0.0000 
    106 H106        2.1933   -1.2331   -0.3630 H         1 UNK         0.0000 
    107 H107        3.6380   -0.6084   -0.9910 H         1 UNK         0.0000 
    108 H108        2.9167   -0.4831   -3.2742 H         1 UNK         0.0000 
    109 H109        1.2712   -0.8450   -2.8737 H         1 UNK         0.0000 
    110 H110        2.6620   -2.7003   -4.0333 H         1 UNK         0.0000 
    111 H111        3.6212   -2.8013   -2.5899 H         1 UNK         0.0000 
    112 H112        1.9837   -4.6661   -4.7933 H         1 UNK         0.0000 
    113 H113       -0.6369   -6.9756   -2.9813 H         1 UNK         0.0000 
    114 H114       -1.3910   -7.1488   -4.5403 H         1 UNK         0.0000 
    115 H115       -0.0655   -8.2102   -4.0325 H         1 UNK         0.0000 
    116 H116        0.4798   -5.8240   -6.8436 H         1 UNK         0.0000 
    117 H117        1.9244   -6.6803   -6.4073 H         1 UNK         0.0000 
    118 H118        0.5256   -8.8122   -6.1614 H         1 UNK         0.0000 
    119 H119       -0.8826   -7.9014   -6.6824 H         1 UNK         0.0000 
    120 H120        0.2162   -8.9795   -8.4262 H         1 UNK         0.0000 
    121 H121       -1.0769   -4.6195    4.0866 H         1 UNK         0.0000 
@<TRIPOS>BOND
     1    1    4 nc   
     2    1    6 nc   
     3    1   39 nc   
     4    1   41 nc   
     5    1   60 nc   
     6    1   62 nc   
     7    2   71 1    
     8    2   70 1    
     9    2    3 1    
    10    2   69 1    
    11    3    4 2    
    12    3    5 am   BACKBONE|DICT|INTERRES
    13    5    6 1    
    14    5    7 1    
    15    7    8 1    
    16    7   72 1    
    17    7   73 1    
    18    8    9 1    
    19    8   74 1    
    20    8   75 1    
    21    9   77 1    
    22    9   76 1    
    23    9   10 1    
    24   10   11 1    
    25   10   12 1    
    26   10   55 1    
    27   12   13 2    
    28   12   14 am   BACKBONE|DICT|INTERRES
    29   14   15 1    
    30   14   78 1    
    31   15   16 1    
    32   15   19 1    
    33   15   17 1    
    34   17   79 1    
    35   17   80 1    
    36   17   18 1    
    37   18   81 1    
    38   19   21 am   BACKBONE|DICT|INTERRES
    39   19   20 2    
    40   21   22 1    
    41   21   82 1    
    42   22   24 1    
    43   22   23 1    
    44   22   26 1    
    45   24   84 1    
    46   24   25 1    
    47   24   83 1    
    48   25   85 1    
    49   26   28 am   BACKBONE|DICT|INTERRES
    50   26   27 2    
    51   28   29 1    
    52   28   86 1    
    53   29   88 1    
    54   29   87 1    
    55   29   30 1    
    56   30   32 am   BACKBONE|DICT|INTERRES
    57   30   31 2    
    58   32   89 1    
    59   32   33 1    
    60   33   34 1    
    61   33   35 1    
    62   33   48 1    
    63   35   90 1    
    64   35   91 1    
    65   35   36 1    
    66   36   37 1    
    67   36   92 1    
    68   36   93 1    
    69   37   94 1    
    70   37   95 1    
    71   37   38 1    
    72   38   39 1    
    73   38   40 am   BACKBONE|DICT|INTERRES
    74   40   42 1    
    75   40   41 2    
    76   42   43 2    
    77   42  121 1    
    78   43   44 1    
    79   43   45 1    
    80   44   97 1    
    81   44   98 1    
    82   44   96 1    
    83   45   46 1    
    84   45   99 1    
    85   45  100 1    
    86   46   47 1    
    87   46  102 1    
    88   46  101 1    
    89   47  103 1    
    90   48   49 2    
    91   48   50 am   BACKBONE|DICT|INTERRES
    92   50   51 1    
    93   50  104 1    
    94   51   52 1    
    95   51   53 1    
    96   51   56 1    
    97   53   54 2    
    98   53   55 am   BACKBONE|DICT|INTERRES
    99   55  105 1    
   100   56  107 1    
   101   56  106 1    
   102   56   57 1    
   103   57   58 1    
   104   57  108 1    
   105   57  109 1    
   106   58   59 1    
   107   58  111 1    
   108   58  110 1    
   109   59   61 am   BACKBONE|DICT|INTERRES
   110   59   60 1    
   111   61   62 2    
   112   61   63 1    
   113   63   64 2    
   114   63  112 1    
   115   64   65 1    
   116   64   66 1    
   117   65  115 1    
   118   65  113 1    
   119   65  114 1    
   120   66   67 1    
   121   66  116 1    
   122   66  117 1    
   123   67  119 1    
   124   67  118 1    
   125   67   68 1    
   126   68  120 1    
@<TRIPOS>SUBSTRUCTURE
     1 UNK         1 GROUP             0       ****    0 ROOT    
