@<TRIPOS>MOLECULE
204_c1
80   87    1
SMALL
USER_CHARGES


@<TRIPOS>ATOM
      1 Fe1         0.0389   -0.7682   -2.4883 Fe        1 UNK         0.0000 
      2 C2          5.2931    1.7120   -2.7964 C.ar      1 UNK         0.0000 
      3 C3          4.8176    2.1612   -4.0236 C.ar      1 UNK         0.0000 
      4 C4          3.5593    1.7714   -4.4680 C.ar      1 UNK         0.0000 
      5 C5          2.7780    0.8757   -3.7365 C.ar      1 UNK         0.0000 
      6 O6          1.6542    0.5740   -4.2821 O.co2     1 UNK         0.0000 
      7 C7          3.2697    0.3782   -2.4899 C.ar      1 UNK         0.0000 
      8 O8          2.6352   -0.5145   -1.8108 O.co2     1 UNK         0.0000 
      9 C9          4.5234    0.8606   -1.9865 C.ar      1 UNK         0.0000 
     10 C10         5.0443    0.5230   -0.5850 C.2       1 UNK         0.0000 
     11 O11         6.2389    0.5402   -0.2695 O.2       1 UNK         0.0000 
     12 N12         4.0739    0.2695    0.2957 N.am      1 UNK         0.0000 
     13 C13         4.1555   -0.2700    1.6435 C.3       1 UNK         0.0000 
     14 C14         2.7767   -0.8039    2.0934 C.3       1 UNK         0.0000 
     15 C15         1.7651    0.3059    2.4698 C.3       1 UNK         0.0000 
     16 N16         0.3156   -0.0409    2.4622 N.am      1 UNK         0.0000 
     17 C17        -0.4109    0.2970    1.3527 C.2       1 UNK         0.0000 
     18 O18         0.0960    0.1999    0.2253 O.co2     1 UNK         0.0000 
     19 C19        -1.8731    0.8924    1.4025 C.3       1 UNK         0.0000 
     20 H20        -2.4721    0.2301    0.7738 H         1 UNK         0.0000 
     21 C21        -2.5858    1.0301    2.7995 C.3       1 UNK         0.0000 
     22 H22        -3.5027    1.5933    2.6075 H         1 UNK         0.0000 
     23 O23        -3.1194   -0.1485    3.3658 O.3       1 UNK         0.0000 
     24 C24        -1.8623    1.8318    3.8970 C.3       1 UNK         0.0000 
     25 N25        -1.8602    2.2319    0.7777 N.am      1 UNK         0.0000 
     26 C26        -2.8894    2.8562    0.1941 C.2       1 UNK         0.0000 
     27 O27        -3.1088    4.0309    0.5062 O.2       1 UNK         0.0000 
     28 C28        -3.7944    2.1062   -0.7719 C.ar      1 UNK         0.0000 
     29 C29        -3.2856    1.2145   -1.7426 C.ar      1 UNK         0.0000 
     30 O30        -2.0527    1.0894   -1.9763 O.co2     1 UNK         0.0000 
     31 C31        -4.1505    0.4767   -2.5499 C.ar      1 UNK         0.0000 
     32 C32        -5.5283    0.6781   -2.4735 C.ar      1 UNK         0.0000 
     33 C33        -6.0392    1.6279   -1.5974 C.ar      1 UNK         0.0000 
     34 C34        -5.1825    2.3360   -0.7521 C.ar      1 UNK         0.0000 
     35 C35        -0.0719   -1.1701    3.3369 C.3       1 UNK         0.0000 
     36 C36         0.2496   -2.5737    2.7599 C.3       1 UNK         0.0000 
     37 C37        -0.7928   -3.6646    3.0909 C.3       1 UNK         0.0000 
     38 C38        -0.6460   -4.9458    2.2378 C.3       1 UNK         0.0000 
     39 N39        -0.8738   -4.7058    0.8150 N.am      1 UNK         0.0000 
     40 C40        -1.0471   -5.6013   -0.1586 C.2       1 UNK         0.0000 
     41 O41        -1.0730   -6.8128    0.0889 O.2       1 UNK         0.0000 
     42 C42        -1.2517   -5.0408   -1.5742 C.ar      1 UNK         0.0000 
     43 C43        -1.0263   -3.6721   -1.9597 C.ar      1 UNK         0.0000 
     44 O44        -0.6281   -2.8207   -1.0716 O.co2     1 UNK         0.0000 
     45 C45        -1.2564   -3.2963   -3.3259 C.ar      1 UNK         0.0000 
     46 O46        -1.1225   -2.1334   -3.8454 O.co2     1 UNK         0.0000 
     47 C47        -1.6840   -4.2564   -4.2436 C.ar      1 UNK         0.0000 
     48 C48        -1.9115   -5.5672   -3.8637 C.ar      1 UNK         0.0000 
     49 C49        -1.7005   -5.9515   -2.5491 C.ar      1 UNK         0.0000 
     50 H50         6.2667    2.0338   -2.4565 H         1 UNK         0.0000 
     51 H51         5.4109    2.8175   -4.6389 H         1 UNK         0.0000 
     52 H52         3.1872    2.1522   -5.4117 H         1 UNK         0.0000 
     53 H53         3.2726    0.0287   -0.3086 H         1 UNK         0.0000 
     54 H54         4.9007   -1.0653    1.7022 H         1 UNK         0.0000 
     55 H55         4.5057    0.5147    2.3165 H         1 UNK         0.0000 
     56 H56         2.3700   -1.4343    1.2998 H         1 UNK         0.0000 
     57 H57         2.9286   -1.4528    2.9548 H         1 UNK         0.0000 
     58 H58         2.0316    0.7099    3.4482 H         1 UNK         0.0000 
     59 H59         1.9262    1.1376    1.7808 H         1 UNK         0.0000 
     60 H60        -4.0727   -0.0501    3.4244 H         1 UNK         0.0000 
     61 H61        -0.9871    1.3148    4.2843 H         1 UNK         0.0000 
     62 H62        -2.5249    2.0110    4.7423 H         1 UNK         0.0000 
     63 H63        -1.5423    2.8049    3.5240 H         1 UNK         0.0000 
     64 H64        -1.1558    2.8434    1.1375 H         1 UNK         0.0000 
     65 H65        -3.7480   -0.2300   -3.2680 H         1 UNK         0.0000 
     66 H66        -6.1741    0.1162   -3.1360 H         1 UNK         0.0000 
     67 H67        -7.0979    1.8200   -1.5888 H         1 UNK         0.0000 
     68 H68        -5.5961    3.0765   -0.0811 H         1 UNK         0.0000 
     69 H69         0.3787   -1.0686    4.3271 H         1 UNK         0.0000 
     70 H70        -1.1359   -1.1579    3.5181 H         1 UNK         0.0000 
     71 H71         0.3465   -2.5059    1.6750 H         1 UNK         0.0000 
     72 H72         1.2245   -2.9082    3.1122 H         1 UNK         0.0000 
     73 H73        -1.8010   -3.2689    2.9552 H         1 UNK         0.0000 
     74 H74        -0.7274   -3.9328    4.1473 H         1 UNK         0.0000 
     75 H75         0.3715   -5.3319    2.3368 H         1 UNK         0.0000 
     76 H76        -1.3177   -5.7233    2.6127 H         1 UNK         0.0000 
     77 H77        -0.7613   -3.7827    0.3732 H         1 UNK         0.0000 
     78 H78        -1.8514   -3.9964   -5.2820 H         1 UNK         0.0000 
     79 H79        -2.2544   -6.2762   -4.6001 H         1 UNK         0.0000 
     80 H80        -1.8899   -6.9778   -2.2766 H         1 UNK         0.0000 
@<TRIPOS>BOND
     1    1    6 nc   
     2    1    8 nc   
     3    1   18 nc   
     4    1   30 nc   
     5    1   44 nc   
     6    1   46 nc   
     7    2   50 1    
     8    2    9 ar   
     9    2    3 ar   
    10    3    4 ar   
    11    3   51 1    
    12    4    5 ar   
    13    4   52 1    
    14    5    7 ar   
    15    5    6 1    
    16    7    9 ar   
    17    7    8 1    
    18    9   10 1    
    19   10   11 2    
    20   10   12 am   BACKBONE|DICT|INTERRES
    21   12   13 1    
    22   12   53 1    
    23   13   14 1    
    24   13   55 1    
    25   13   54 1    
    26   14   15 1    
    27   14   57 1    
    28   14   56 1    
    29   15   16 1    
    30   15   58 1    
    31   15   59 1    
    32   16   35 1    
    33   16   17 am   BACKBONE|DICT|INTERRES
    34   17   19 1    
    35   17   18 2    
    36   19   20 1    
    37   19   21 1    
    38   19   25 1    
    39   21   22 1    
    40   21   23 1    
    41   21   24 1    
    42   23   60 1    
    43   24   61 1    
    44   24   62 1    
    45   24   63 1    
    46   25   64 1    
    47   25   26 am   BACKBONE|DICT|INTERRES
    48   26   27 2    
    49   26   28 1    
    50   28   34 ar   
    51   28   29 ar   
    52   29   30 1    
    53   29   31 ar   
    54   31   32 ar   
    55   31   65 1    
    56   32   33 ar   
    57   32   66 1    
    58   33   67 1    
    59   33   34 ar   
    60   34   68 1    
    61   35   69 1    
    62   35   36 1    
    63   35   70 1    
    64   36   37 1    
    65   36   72 1    
    66   36   71 1    
    67   37   74 1    
    68   37   38 1    
    69   37   73 1    
    70   38   76 1    
    71   38   39 1    
    72   38   75 1    
    73   39   40 am   BACKBONE|DICT|INTERRES
    74   39   77 1    
    75   40   41 2    
    76   40   42 1    
    77   42   43 ar   
    78   42   49 ar   
    79   43   45 ar   
    80   43   44 1    
    81   45   47 ar   
    82   45   46 1    
    83   47   48 ar   
    84   47   78 1    
    85   48   49 ar   
    86   48   79 1    
    87   49   80 1    
@<TRIPOS>SUBSTRUCTURE
     1 UNK         1 GROUP             0       ****    0 ROOT    
