@<TRIPOS>MOLECULE
216_c1
53   58    1
SMALL
USER_CHARGES


@<TRIPOS>ATOM
      1 Fe1         0.1593   -0.3516    0.0063 Fe        1 UNK         0.0000 
      2 O2          1.6137    1.2281    0.7099 O.co2     1 UNK         0.0000 
      3 N3          0.9725    1.7548    1.7463 N.am      1 UNK         0.0000 
      4 C4          1.1594    3.2216    1.8385 C.3       1 UNK         0.0000 
      5 C5          0.2364    4.0651    0.8925 C.3       1 UNK         0.0000 
      6 C6          0.3249    3.8104   -0.6475 C.3       1 UNK         0.0000 
      7 C7         -1.0315    3.7334   -1.4085 C.3       1 UNK         0.0000 
      8 N8         -1.0053    2.8276   -2.5823 N.am      1 UNK         0.0000 
      9 C9         -0.9862    1.4915   -2.4505 C.2       1 UNK         0.0000 
     10 O10        -1.0780    0.9821   -1.3253 O.co2     1 UNK         0.0000 
     11 C11        -0.8190    0.5544   -3.6687 C.3       1 UNK         0.0000 
     12 C12         0.3887   -0.4677   -3.6252 C.3       1 UNK         0.0000 
     13 C13         0.4682   -1.4117   -2.4086 C.2       1 UNK         0.0000 
     14 O14        -0.4655   -1.4621   -1.6024 O.co2     1 UNK         0.0000 
     15 N15         1.6706   -1.7448   -1.8977 N.am      1 UNK         0.0000 
     16 O16         2.0808   -1.2627   -0.7270 O.co2     1 UNK         0.0000 
     17 C17         2.0953   -3.1433   -2.0339 C.3       1 UNK         0.0000 
     18 C18         1.2795   -4.1731   -1.1865 C.3       1 UNK         0.0000 
     19 C19         1.0334   -3.8890    0.3363 C.3       1 UNK         0.0000 
     20 C20        -0.3628   -3.3202    0.7504 C.3       1 UNK         0.0000 
     21 N21        -0.3270   -1.9791    1.4165 N.pl3     1 UNK         0.0000 
     22 C22        -0.5119   -1.9801    2.7200 C.2       1 UNK         0.0000 
     23 O23        -0.2918   -3.0911    3.5006 O.3       1 UNK         0.0000 
     24 C24        -1.1054   -0.7853    3.5257 C.3       1 UNK         0.0000 
     25 C25        -0.3834    0.6212    3.5198 C.3       1 UNK         0.0000 
     26 C26        -0.1881    1.1867    2.1237 C.2       1 UNK         0.0000 
     27 O27        -0.8135    0.6144    1.2255 O.co2     1 UNK         0.0000 
     28 H28         2.2034    3.4549    1.5874 H         1 UNK         0.0000 
     29 H29         1.0490    3.5567    2.8762 H         1 UNK         0.0000 
     30 H30         0.4678    5.1157    1.0701 H         1 UNK         0.0000 
     31 H31        -0.7859    3.9482    1.2506 H         1 UNK         0.0000 
     32 H32         0.9216    4.6038   -1.0990 H         1 UNK         0.0000 
     33 H33         0.9159    2.9234   -0.8625 H         1 UNK         0.0000 
     34 H34        -1.8115    3.3890   -0.7269 H         1 UNK         0.0000 
     35 H35        -1.3464    4.7357   -1.7093 H         1 UNK         0.0000 
     36 H36        -1.0121    3.2640   -3.4967 H         1 UNK         0.0000 
     37 H37        -1.7424   -0.0036   -3.8245 H         1 UNK         0.0000 
     38 H38        -0.7355    1.1499   -4.5811 H         1 UNK         0.0000 
     39 H39         1.3373    0.0594   -3.7760 H         1 UNK         0.0000 
     40 H40         0.3272   -1.1178   -4.5003 H         1 UNK         0.0000 
     41 H41         2.0852   -3.4360   -3.0873 H         1 UNK         0.0000 
     42 H42         3.1532   -3.2188   -1.7506 H         1 UNK         0.0000 
     43 H43         1.8068   -5.1200   -1.2715 H         1 UNK         0.0000 
     44 H44         0.3307   -4.3579   -1.6875 H         1 UNK         0.0000 
     45 H45         1.8532   -3.3312    0.7855 H         1 UNK         0.0000 
     46 H46         1.1036   -4.8628    0.8354 H         1 UNK         0.0000 
     47 H47        -0.8942   -4.0937    1.3261 H         1 UNK         0.0000 
     48 H48        -1.0193   -3.2792   -0.1208 H         1 UNK         0.0000 
     49 H49        -1.2056   -1.0738    4.5720 H         1 UNK         0.0000 
     50 H50        -2.1474   -0.6471    3.2377 H         1 UNK         0.0000 
     51 H51        -0.9616    1.3384    4.0948 H         1 UNK         0.0000 
     52 H52         0.5951    0.5416    3.9947 H         1 UNK         0.0000 
     53 H53        -0.4479   -2.9108    4.4367 H         1 UNK         0.0000 
@<TRIPOS>BOND
     1    1    2 nc   
     2    1   10 nc   
     3    1   14 nc   
     4    1   16 nc   
     5    1   21 nc   
     6    1   27 nc   
     7    2    3 1    
     8    3    4 1    
     9    3   26 am   BACKBONE|DICT|INTERRES
    10    4   29 1    
    11    4    5 1    
    12    4   28 1    
    13    5   30 1    
    14    5   31 1    
    15    5    6 1    
    16    6    7 1    
    17    6   32 1    
    18    6   33 1    
    19    7   34 1    
    20    7    8 1    
    21    7   35 1    
    22    8    9 am   BACKBONE|DICT|INTERRES
    23    8   36 1    
    24    9   10 2    
    25    9   11 1    
    26   11   37 1    
    27   11   12 1    
    28   11   38 1    
    29   12   13 1    
    30   12   39 1    
    31   12   40 1    
    32   13   15 am   BACKBONE|DICT|INTERRES
    33   13   14 2    
    34   15   16 1    
    35   15   17 1    
    36   17   42 1    
    37   17   18 1    
    38   17   41 1    
    39   18   19 1    
    40   18   43 1    
    41   18   44 1    
    42   19   46 1    
    43   19   20 1    
    44   19   45 1    
    45   20   21 1    
    46   20   47 1    
    47   20   48 1    
    48   21   22 2    
    49   22   23 1    
    50   22   24 1    
    51   23   53 1    
    52   24   25 1    
    53   24   49 1    
    54   24   50 1    
    55   25   51 1    
    56   25   52 1    
    57   25   26 1    
    58   26   27 2    
@<TRIPOS>SUBSTRUCTURE
     1 UNK         1 GROUP             0       ****    0 ROOT    
