@<TRIPOS>MOLECULE
116_c1
110   115    1
SMALL
USER_CHARGES


@<TRIPOS>ATOM
      1 O1          8.3001  -18.5514    5.5833 O.3       1 UNK         0.0000 
      2 C2          8.2227  -19.1618    4.3104 C.3       1 UNK         0.0000 
      3 C3          6.7436  -19.2349    3.9038 C.3       1 UNK         0.0000 
      4 C4          6.4179  -19.9010    2.5673 C.2       1 UNK         0.0000 
      5 C5          7.5881  -20.3951    1.6917 C.3       1 UNK         0.0000 
      6 C6          5.1019  -20.0123    2.2320 C.2       1 UNK         0.0000 
      7 C7          4.6069  -20.6253    1.0067 C.2       1 UNK         0.0000 
      8 O8          5.3796  -21.0404    0.1437 O.co2     1 UNK         0.0000 
      9 N9          3.2591  -20.6887    0.7367 N.am      1 UNK         0.0000 
     10 O10         2.7677  -21.1979   -0.4030 O.co2     1 UNK         0.0000 
     11 C11         2.2581  -19.8746    1.4629 C.3       1 UNK         0.0000 
     12 C12         2.4499  -18.3952    1.0839 C.3       1 UNK         0.0000 
     13 C13         1.7439  -17.3438    1.9586 C.3       1 UNK         0.0000 
     14 C14         2.1909  -15.9031    1.5599 C.3       1 UNK         0.0000 
     15 H15         1.6954  -15.2051    2.2383 H         1 UNK         0.0000 
     16 N16         3.6493  -15.6723    1.6777 N.am      1 UNK         0.0000 
     17 C17         4.5022  -15.5966    0.6466 C.2       1 UNK         0.0000 
     18 O18         5.6955  -15.5747    0.9138 O.2       1 UNK         0.0000 
     19 C19         1.5499  -15.5443    0.1790 C.2       1 UNK         0.0000 
     20 O20         0.3507  -15.4609   -0.0484 O.2       1 UNK         0.0000 
     21 N21         2.4004  -15.3108   -0.8259 N.am      1 UNK         0.0000 
     22 C22         3.8676  -15.5007   -0.7833 C.3       1 UNK         0.0000 
     23 H23         4.3172  -14.5852   -1.1766 H         1 UNK         0.0000 
     24 C24         4.3113  -16.6916   -1.6824 C.3       1 UNK         0.0000 
     25 C25         5.8272  -16.9739   -1.9275 C.3       1 UNK         0.0000 
     26 C26         6.1326  -18.0541   -3.0177 C.3       1 UNK         0.0000 
     27 N27         5.7758  -19.4651   -2.6798 N.am      1 UNK         0.0000 
     28 O28         4.5269  -19.6035   -2.2429 O.co2     1 UNK         0.0000 
     29 C29         6.6200  -20.5263   -2.7893 C.2       1 UNK         0.0000 
     30 O30         6.2559  -21.6319   -2.3654 O.co2     1 UNK         0.0000 
     31 C31         7.8945  -20.3640   -3.4163 C.2       1 UNK         0.0000 
     32 C32         8.2742  -20.8733   -4.6168 C.2       1 UNK         0.0000 
     33 C33         9.7092  -20.6257   -5.0632 C.3       1 UNK         0.0000 
     34 C34         7.4736  -21.7039   -5.6474 C.3       1 UNK         0.0000 
     35 C35         5.9719  -22.0614   -5.4663 C.3       1 UNK         0.0000 
     36 O36         5.5672  -22.7118   -6.6781 O.3       1 UNK         0.0000 
     37 C37         4.4322  -22.4652   -7.3989 C.2       1 UNK         0.0000 
     38 O38         4.4154  -22.6980   -8.6168 O.2       1 UNK         0.0000 
     39 C39         3.1748  -21.9799   -6.6382 C.3       1 UNK         0.0000 
     40 H40         3.3856  -21.0990   -6.0284 H         1 UNK         0.0000 
     41 N41         2.1814  -21.4948   -7.7065 N.4       1 UNK         0.0000 
     42 H42         2.1904  -22.2805   -8.3584 H         1 UNK         0.0000 
     43 C43         0.7252  -21.2591   -7.2252 C.3       1 UNK         0.0000 
     44 C44         2.6248  -20.2369   -8.5095 C.3       1 UNK         0.0000 
     45 C45         2.6566  -23.1726   -5.7633 C.3       1 UNK         0.0000 
     46 C46         1.5326  -22.8898   -4.7085 C.3       1 UNK         0.0000 
     47 C47         1.7867  -23.6584   -3.3699 C.3       1 UNK         0.0000 
     48 N48         3.0844  -23.3332   -2.7036 N.am      1 UNK         0.0000 
     49 O49         3.6276  -22.1970   -3.1505 O.co2     1 UNK         0.0000 
     50 C50         3.5915  -23.9677   -1.5938 C.2       1 UNK         0.0000 
     51 O51         4.5018  -23.3826   -0.9896 O.co2     1 UNK         0.0000 
     52 C52         3.0778  -25.1913   -1.0487 C.2       1 UNK         0.0000 
     53 C53         2.9370  -26.3895   -1.6597 C.2       1 UNK         0.0000 
     54 C54         3.2651  -26.6889   -3.1276 C.3       1 UNK         0.0000 
     55 C55         2.4236  -27.5323   -0.7830 C.3       1 UNK         0.0000 
     56 C56         2.0566  -28.8709   -1.4452 C.3       1 UNK         0.0000 
     57 O57         0.9444  -28.7083   -2.3146 O.3       1 UNK         0.0000 
     58 H58         9.2142  -18.5104    5.8770 H         1 UNK         0.0000 
     59 H59         8.8059  -18.5781    3.5890 H         1 UNK         0.0000 
     60 H60         8.6741  -20.1593    4.3623 H         1 UNK         0.0000 
     61 H61         6.3187  -18.2303    3.8848 H         1 UNK         0.0000 
     62 H62         6.1937  -19.7911    4.6618 H         1 UNK         0.0000 
     63 H63         8.5813  -20.2670    2.1065 H         1 UNK         0.0000 
     64 H64         7.5986  -19.8709    0.7294 H         1 UNK         0.0000 
     65 H65         7.4873  -21.4662    1.4961 H         1 UNK         0.0000 
     66 H66         4.3496  -19.6074    2.8951 H         1 UNK         0.0000 
     67 H67         2.2898  -20.0238    2.5511 H         1 UNK         0.0000 
     68 H68         1.2312  -20.1517    1.2050 H         1 UNK         0.0000 
     69 H69         2.1469  -18.2537    0.0469 H         1 UNK         0.0000 
     70 H70         3.5141  -18.1519    1.1204 H         1 UNK         0.0000 
     71 H71         2.0120  -17.4967    3.0060 H         1 UNK         0.0000 
     72 H72         0.6535  -17.4520    1.9209 H         1 UNK         0.0000 
     73 H73         4.1239  -15.7743    2.5641 H         1 UNK         0.0000 
     74 H74         1.9208  -15.1618   -1.7013 H         1 UNK         0.0000 
     75 H75         3.8310  -16.5464   -2.6498 H         1 UNK         0.0000 
     76 H76         3.8190  -17.5660   -1.2565 H         1 UNK         0.0000 
     77 H77         6.3264  -17.2456   -0.9948 H         1 UNK         0.0000 
     78 H78         6.2989  -16.0450   -2.2463 H         1 UNK         0.0000 
     79 H79         7.1697  -17.9140   -3.3414 H         1 UNK         0.0000 
     80 H80         5.5606  -17.8241   -3.9166 H         1 UNK         0.0000 
     81 H81         8.5667  -19.7820   -2.8041 H         1 UNK         0.0000 
     82 H82        10.2601  -20.0499   -4.3221 H         1 UNK         0.0000 
     83 H83         9.7312  -20.0692   -5.9976 H         1 UNK         0.0000 
     84 H84        10.2359  -21.5710   -5.1952 H         1 UNK         0.0000 
     85 H85         8.0184  -22.6428   -5.7897 H         1 UNK         0.0000 
     86 H86         7.5648  -21.1739   -6.5978 H         1 UNK         0.0000 
     87 H87         5.8357  -22.7599   -4.6399 H         1 UNK         0.0000 
     88 H88         5.3734  -21.1711   -5.2667 H         1 UNK         0.0000 
     89 H89         0.2671  -22.2142   -6.9767 H         1 UNK         0.0000 
     90 H90         0.1333  -20.8044   -8.0251 H         1 UNK         0.0000 
     91 H91         0.7512  -20.5867   -6.3589 H         1 UNK         0.0000 
     92 H92         3.5941  -20.3914   -8.9857 H         1 UNK         0.0000 
     93 H93         2.6718  -19.4014   -7.8031 H         1 UNK         0.0000 
     94 H94         1.8795  -20.0450   -9.2884 H         1 UNK         0.0000 
     95 H95         3.5307  -23.5405   -5.2209 H         1 UNK         0.0000 
     96 H96         2.3974  -24.0432   -6.3704 H         1 UNK         0.0000 
     97 H97         0.5529  -23.1771   -5.0820 H         1 UNK         0.0000 
     98 H98         1.4456  -21.8228   -4.4923 H         1 UNK         0.0000 
     99 H99         1.7700  -24.7180   -3.6320 H         1 UNK         0.0000 
    100 H100        0.9444  -23.5190   -2.6821 H         1 UNK         0.0000 
    101 H101        2.8305  -25.0831    0.0034 H         1 UNK         0.0000 
    102 H102        3.7281  -25.8497   -3.6509 H         1 UNK         0.0000 
    103 H103        2.3462  -26.9253   -3.6652 H         1 UNK         0.0000 
    104 H104        3.9396  -27.5344   -3.2200 H         1 UNK         0.0000 
    105 H105        1.5577  -27.1619   -0.2314 H         1 UNK         0.0000 
    106 H106        3.1958  -27.7207   -0.0381 H         1 UNK         0.0000 
    107 H107        1.7881  -29.5904   -0.6703 H         1 UNK         0.0000 
    108 H108        2.9084  -29.3046   -1.9774 H         1 UNK         0.0000 
    109 H109        0.6319  -29.5654   -2.6172 H         1 UNK         0.0000 
    110 Fe110       4.4593  -21.4853   -1.5088 Fe        1 UNK         0.0000 
@<TRIPOS>BOND
     1    1    2 1    
     2    1   58 1    
     3    2    3 1    
     4    2   59 1    
     5    2   60 1    
     6    3    4 1    
     7    3   61 1    
     8    3   62 1    
     9    4    5 1    
    10    4    6 2    
    11    5   63 1    
    12    5   64 1    
    13    5   65 1    
    14    6    7 1    
    15    6   66 1    
    16    7    8 2    
    17    7    9 am   BACKBONE|DICT|INTERRES
    18    8  110 nc   
    19    9   10 1    
    20    9   11 1    
    21   10  110 nc   
    22   11   12 1    
    23   11   67 1    
    24   11   68 1    
    25   12   13 1    
    26   12   69 1    
    27   12   70 1    
    28   13   71 1    
    29   13   72 1    
    30   13   14 1    
    31   14   16 1    
    32   14   19 1    
    33   14   15 1    
    34   16   17 am   BACKBONE|DICT|INTERRES
    35   16   73 1    
    36   17   18 2    
    37   17   22 1    
    38   19   20 2    
    39   19   21 am   BACKBONE|DICT|INTERRES
    40   21   22 1    
    41   21   74 1    
    42   22   23 1    
    43   22   24 1    
    44   24   25 1    
    45   24   75 1    
    46   24   76 1    
    47   25   26 1    
    48   25   77 1    
    49   25   78 1    
    50   26   27 1    
    51   26   79 1    
    52   26   80 1    
    53   27   28 1    
    54   27   29 am   BACKBONE|DICT|INTERRES
    55   28  110 nc   
    56   29   30 2    
    57   29   31 1    
    58   30  110 nc   
    59   31   32 2    
    60   31   81 1    
    61   32   33 1    
    62   32   34 1    
    63   33   82 1    
    64   33   83 1    
    65   33   84 1    
    66   34   35 1    
    67   34   85 1    
    68   34   86 1    
    69   35   36 1    
    70   35   87 1    
    71   35   88 1    
    72   36   37 1    
    73   37   38 2    
    74   37   39 1    
    75   39   40 1    
    76   39   41 1    
    77   39   45 1    
    78   41   42 1    
    79   41   43 1    
    80   41   44 1    
    81   43   89 1    
    82   43   90 1    
    83   43   91 1    
    84   44   92 1    
    85   44   93 1    
    86   44   94 1    
    87   45   46 1    
    88   45   95 1    
    89   45   96 1    
    90   46   47 1    
    91   46   97 1    
    92   46   98 1    
    93   47   48 1    
    94   47   99 1    
    95   47  100 1    
    96   48   49 1    
    97   48   50 am   BACKBONE|DICT|INTERRES
    98   49  110 nc   
    99   50   51 2    
   100   50   52 1    
   101   51  110 nc   
   102   52   53 2    
   103   52  101 1    
   104   53   54 1    
   105   53   55 1    
   106   54  102 1    
   107   54  103 1    
   108   54  104 1    
   109   55   56 1    
   110   55  105 1    
   111   55  106 1    
   112   56   57 1    
   113   56  107 1    
   114   56  108 1    
   115   57  109 1    
@<TRIPOS>SUBSTRUCTURE
     1 UNK         1 GROUP             0       ****    0 ROOT    
