@<TRIPOS>MOLECULE
081_c1
108   113    1
SMALL
USER_CHARGES


@<TRIPOS>ATOM
      1 O1         -2.2101   -6.4123  -20.4134 O.3       1 UNK         0.0000 
      2 C2         -3.5431   -6.3449  -19.9312 C.3       1 UNK         0.0000 
      3 C3         -3.6376   -5.3872  -18.7294 C.3       1 UNK         0.0000 
      4 C4         -2.8243   -5.7197  -17.4569 C.2       1 UNK         0.0000 
      5 C5         -2.1076   -7.0556  -17.3321 C.3       1 UNK         0.0000 
      6 C6         -2.6886   -4.8708  -16.4167 C.2       1 UNK         0.0000 
      7 C7         -3.3027   -3.5766  -16.3348 C.2       1 UNK         0.0000 
      8 O8         -4.5326   -3.4219  -16.4049 O.co2     1 UNK         0.0000 
      9 N9         -2.5282   -2.4931  -16.0565 N.am      1 UNK         0.0000 
     10 O10        -3.0389   -1.2760  -15.8372 O.co2     1 UNK         0.0000 
     11 C11        -1.1038   -2.5881  -15.6732 C.3       1 UNK         0.0000 
     12 C12        -0.9886   -2.6486  -14.1439 C.3       1 UNK         0.0000 
     13 C13         0.4343   -2.7776  -13.5727 C.3       1 UNK         0.0000 
     14 C14         0.4285   -2.7642  -12.0201 C.3       1 UNK         0.0000 
     15 H15         1.4672   -2.8014  -11.6872 H         1 UNK         0.0000 
     16 N16        -0.1492   -1.5309  -11.4281 N.am      1 UNK         0.0000 
     17 C17        -1.3444   -1.4716  -10.8156 C.2       1 UNK         0.0000 
     18 O18        -1.6575   -0.4342  -10.2410 O.2       1 UNK         0.0000 
     19 C19        -0.1481   -4.1110  -11.4655 C.2       1 UNK         0.0000 
     20 O20         0.4127   -5.1990  -11.5062 O.2       1 UNK         0.0000 
     21 N21        -1.3320   -4.0113  -10.8358 N.am      1 UNK         0.0000 
     22 C22        -2.1703   -2.7974  -10.9065 C.3       1 UNK         0.0000 
     23 H23        -2.5734   -2.8097  -11.9095 H         1 UNK         0.0000 
     24 C24        -3.3745   -2.8372   -9.9185 C.3       1 UNK         0.0000 
     25 C25        -4.5845   -1.8983  -10.1688 C.3       1 UNK         0.0000 
     26 C26        -5.4478   -2.2103  -11.4183 C.3       1 UNK         0.0000 
     27 N27        -4.9362   -1.6555  -12.6914 N.am      1 UNK         0.0000 
     28 O28        -4.4779   -2.5951  -13.5435 O.co2     1 UNK         0.0000 
     29 C29        -5.1881   -0.3679  -13.0846 C.2       1 UNK         0.0000 
     30 O30        -5.1050   -0.1181  -14.2889 O.co2     1 UNK         0.0000 
     31 C31        -5.6112    0.6519  -12.1405 C.2       1 UNK         0.0000 
     32 C32        -5.6485    1.9774  -12.4458 C.2       1 UNK         0.0000 
     33 C33        -5.1628    2.6028  -13.7619 C.3       1 UNK         0.0000 
     34 C34        -6.2093    2.9717  -11.4537 C.3       1 UNK         0.0000 
     35 C35        -7.6272    3.4659  -11.8166 C.3       1 UNK         0.0000 
     36 O36        -7.6963    4.1787  -13.0588 O.3       1 UNK         0.0000 
     37 C37        -8.3153    3.7752  -14.2225 C.2       1 UNK         0.0000 
     38 O38        -8.3160    4.5192  -15.2101 O.2       1 UNK         0.0000 
     39 C39        -9.0521    2.4218  -14.2636 C.3       1 UNK         0.0000 
     40 H40        -8.7162    1.7372  -13.4824 H         1 UNK         0.0000 
     41 N41       -10.4696    2.7986  -14.1191 N.am      1 UNK         0.0000 
     42 C42       -11.2902    2.4155  -13.1361 C.2       1 UNK         0.0000 
     43 O43       -10.9355    1.6851  -12.2239 O.2       1 UNK         0.0000 
     44 C44       -12.7198    2.9527  -13.1755 C.3       1 UNK         0.0000 
     45 C45        -8.8242    1.7033  -15.6281 C.3       1 UNK         0.0000 
     46 C46        -9.5767    0.3605  -15.8341 C.3       1 UNK         0.0000 
     47 C47        -8.8335   -0.9139  -15.3502 C.3       1 UNK         0.0000 
     48 N48        -7.4856   -1.2671  -15.8862 N.am      1 UNK         0.0000 
     49 O49        -6.8862   -2.1927  -15.1390 O.co2     1 UNK         0.0000 
     50 C50        -6.8658   -0.7371  -16.9740 C.2       1 UNK         0.0000 
     51 O51        -5.6263   -0.7829  -17.0163 O.co2     1 UNK         0.0000 
     52 C52        -7.6955   -0.3405  -18.0797 C.2       1 UNK         0.0000 
     53 C53        -7.5509    0.7417  -18.8848 C.2       1 UNK         0.0000 
     54 C54        -8.6223    0.9673  -19.9470 C.3       1 UNK         0.0000 
     55 C55        -6.4162    1.7822  -18.8037 C.3       1 UNK         0.0000 
     56 C56        -6.5550    2.9969  -19.7534 C.3       1 UNK         0.0000 
     57 O57        -5.4868    3.9102  -19.5918 O.3       1 UNK         0.0000 
     58 H58        -2.0368   -7.2858  -20.7745 H         1 UNK         0.0000 
     59 H59        -4.1828   -6.0025  -20.7460 H         1 UNK         0.0000 
     60 H60        -3.9151   -7.3338  -19.6575 H         1 UNK         0.0000 
     61 H61        -4.6874   -5.2988  -18.4479 H         1 UNK         0.0000 
     62 H62        -3.3575   -4.3877  -19.0702 H         1 UNK         0.0000 
     63 H63        -2.2500   -7.7147  -18.1821 H         1 UNK         0.0000 
     64 H64        -2.4574   -7.5692  -16.4346 H         1 UNK         0.0000 
     65 H65        -1.0395   -6.8530  -17.2338 H         1 UNK         0.0000 
     66 H66        -2.0897   -5.1135  -15.5497 H         1 UNK         0.0000 
     67 H67        -0.5823   -3.4473  -16.1045 H         1 UNK         0.0000 
     68 H68        -0.5530   -1.7262  -16.0611 H         1 UNK         0.0000 
     69 H69        -1.5794   -3.4952  -13.7850 H         1 UNK         0.0000 
     70 H70        -1.4506   -1.7468  -13.7332 H         1 UNK         0.0000 
     71 H71         1.0365   -1.9338  -13.9111 H         1 UNK         0.0000 
     72 H72         0.9435   -3.6673  -13.9556 H         1 UNK         0.0000 
     73 H73         0.3709   -0.6708  -11.4068 H         1 UNK         0.0000 
     74 H74        -1.6777   -4.8560  -10.4148 H         1 UNK         0.0000 
     75 H75        -2.9917   -2.6628   -8.9102 H         1 UNK         0.0000 
     76 H76        -3.7508   -3.8621   -9.9117 H         1 UNK         0.0000 
     77 H77        -5.2361   -2.0072   -9.3030 H         1 UNK         0.0000 
     78 H78        -4.2533   -0.8573  -10.1644 H         1 UNK         0.0000 
     79 H79        -6.4751   -1.8807  -11.2373 H         1 UNK         0.0000 
     80 H80        -5.5629   -3.2932  -11.4978 H         1 UNK         0.0000 
     81 H81        -5.9398    0.3044  -11.1699 H         1 UNK         0.0000 
     82 H82        -4.1356    2.3129  -13.9903 H         1 UNK         0.0000 
     83 H83        -5.1972    3.6920  -13.7670 H         1 UNK         0.0000 
     84 H84        -5.7938    2.2774  -14.5889 H         1 UNK         0.0000 
     85 H85        -5.5131    3.8044  -11.3603 H         1 UNK         0.0000 
     86 H86        -6.2304    2.5243  -10.4634 H         1 UNK         0.0000 
     87 H87        -7.8967    4.2011  -11.0609 H         1 UNK         0.0000 
     88 H88        -8.3682    2.6727  -11.6955 H         1 UNK         0.0000 
     89 H89       -10.8244    3.3477  -14.8864 H         1 UNK         0.0000 
     90 H90       -12.9217    3.5753  -14.0458 H         1 UNK         0.0000 
     91 H91       -12.8883    3.5509  -12.2820 H         1 UNK         0.0000 
     92 H92       -13.4324    2.1291  -13.1667 H         1 UNK         0.0000 
     93 H93        -7.7478    1.5732  -15.7621 H         1 UNK         0.0000 
     94 H94        -9.1334    2.3659  -16.4411 H         1 UNK         0.0000 
     95 H95        -9.8575    0.2490  -16.8774 H         1 UNK         0.0000 
     96 H96       -10.5422    0.3900  -15.3331 H         1 UNK         0.0000 
     97 H97        -8.7254   -0.7964  -14.2691 H         1 UNK         0.0000 
     98 H98        -9.4837   -1.7761  -15.5025 H         1 UNK         0.0000 
     99 H99        -8.5271   -1.0206  -18.2110 H         1 UNK         0.0000 
    100 H100       -9.3838    0.1856  -19.9134 H         1 UNK         0.0000 
    101 H101       -8.1801    0.9563  -20.9419 H         1 UNK         0.0000 
    102 H102       -9.1308    1.9155  -19.7727 H         1 UNK         0.0000 
    103 H103       -6.3334    2.1510  -17.7795 H         1 UNK         0.0000 
    104 H104       -5.4669    1.2846  -19.0120 H         1 UNK         0.0000 
    105 H105       -7.4905    3.5296  -19.5647 H         1 UNK         0.0000 
    106 H106       -6.5776    2.6743  -20.7982 H         1 UNK         0.0000 
    107 H107       -5.6525    4.6969  -20.1225 H         1 UNK         0.0000 
    108 Fe108      -4.9287   -1.7470  -15.3637 Fe        1 UNK         0.0000 
@<TRIPOS>BOND
     1    1    2 1    
     2    1   58 1    
     3    2    3 1    
     4    2   59 1    
     5    2   60 1    
     6    3    4 1    
     7    3   61 1    
     8    3   62 1    
     9    4    5 1    
    10    4    6 2    
    11    5   63 1    
    12    5   64 1    
    13    5   65 1    
    14    6    7 1    
    15    6   66 1    
    16    7    8 2    
    17    7    9 am   BACKBONE|DICT|INTERRES
    18    8  108 nc   
    19    9   10 1    
    20    9   11 1    
    21   10  108 nc   
    22   11   12 1    
    23   11   67 1    
    24   11   68 1    
    25   12   13 1    
    26   12   69 1    
    27   12   70 1    
    28   13   71 1    
    29   13   72 1    
    30   13   14 1    
    31   14   16 1    
    32   14   19 1    
    33   14   15 1    
    34   16   17 am   BACKBONE|DICT|INTERRES
    35   16   73 1    
    36   17   18 2    
    37   17   22 1    
    38   19   20 2    
    39   19   21 am   BACKBONE|DICT|INTERRES
    40   21   22 1    
    41   21   74 1    
    42   22   24 1    
    43   22   23 1    
    44   24   25 1    
    45   24   75 1    
    46   24   76 1    
    47   25   26 1    
    48   25   77 1    
    49   25   78 1    
    50   26   27 1    
    51   26   79 1    
    52   26   80 1    
    53   27   28 1    
    54   27   29 am   BACKBONE|DICT|INTERRES
    55   28  108 nc   
    56   29   30 2    
    57   29   31 1    
    58   30  108 nc   
    59   31   32 2    
    60   31   81 1    
    61   32   33 1    
    62   32   34 1    
    63   33   82 1    
    64   33   83 1    
    65   33   84 1    
    66   34   35 1    
    67   34   85 1    
    68   34   86 1    
    69   35   36 1    
    70   35   87 1    
    71   35   88 1    
    72   36   37 1    
    73   37   38 2    
    74   37   39 1    
    75   39   40 1    
    76   39   41 1    
    77   39   45 1    
    78   41   42 am   BACKBONE|DICT|INTERRES
    79   41   89 1    
    80   42   43 2    
    81   42   44 1    
    82   44   90 1    
    83   44   91 1    
    84   44   92 1    
    85   45   46 1    
    86   45   93 1    
    87   45   94 1    
    88   46   47 1    
    89   46   95 1    
    90   46   96 1    
    91   47   48 1    
    92   47   97 1    
    93   47   98 1    
    94   48   49 1    
    95   48   50 am   BACKBONE|DICT|INTERRES
    96   49  108 nc   
    97   50   51 2    
    98   50   52 1    
    99   51  108 nc   
   100   52   53 2    
   101   52   99 1    
   102   53   54 1    
   103   53   55 1    
   104   54  100 1    
   105   54  101 1    
   106   54  102 1    
   107   55   56 1    
   108   55  103 1    
   109   55  104 1    
   110   56   57 1    
   111   56  105 1    
   112   56  106 1    
   113   57  107 1    
@<TRIPOS>SUBSTRUCTURE
     1 UNK         1 GROUP             0       ****    0 ROOT    
