@<TRIPOS>MOLECULE
003_c1
79   84    1
SMALL
USER_CHARGES


@<TRIPOS>ATOM
      1 Fe1         0.0000    0.0000    0.0000 Fe        1 UNK         0.0000 
      2 O2          0.2597    7.9036    2.2421 O.3       1 UNK         0.0000 
      3 C3          0.3693    8.5198    0.9878 C.3       1 UNK         0.0000 
      4 C4         -0.0371    7.5427   -0.1276 C.3       1 UNK         0.0000 
      5 H5          0.1076    8.0722   -1.0964 H         1 UNK         0.0000 
      6 C6         -1.5161    7.2238   -0.0014 C.2       1 UNK         0.0000 
      7 O7         -2.0116    6.6740    1.1260 O.3       1 UNK         0.0000 
      8 O8         -2.2790    7.5066   -0.9118 O.2       1 UNK         0.0000 
      9 N9          0.8792    6.3909   -0.1311 N.am      1 UNK         0.0000 
     10 C10         0.5568    5.0543   -0.0700 C.2       1 UNK         0.0000 
     11 O11        -0.6156    4.7409   -0.0192 O.2       1 UNK         0.0000 
     12 C12         1.6123    3.9497   -0.0758 C.ar      1 UNK         0.0000 
     13 C13         1.2877    2.5439   -0.0373 C.ar      1 UNK         0.0000 
     14 O14         0.0000    2.0800    0.0000 O.co2     1 UNK         0.0000 
     15 C15         2.3392    1.5623   -0.0388 C.ar      1 UNK         0.0000 
     16 O16         2.0690    0.2141    0.0000 O.co2     1 UNK         0.0000 
     17 C17         3.6700    1.9735   -0.0810 C.ar      1 UNK         0.0000 
     18 C18         3.9883    3.3199   -0.1197 C.ar      1 UNK         0.0000 
     19 C19         2.9889    4.2881   -0.1161 C.ar      1 UNK         0.0000 
     20 H20         0.5173    8.5906    2.9102 H         1 UNK         0.0000 
     21 H21        -0.2874    9.4186    0.9462 H         1 UNK         0.0000 
     22 H22         1.4237    8.8364    0.8235 H         1 UNK         0.0000 
     23 H23         1.8605    6.6702   -0.2120 H         1 UNK         0.0000 
     24 H24         4.4674    1.2411   -0.0838 H         1 UNK         0.0000 
     25 H25         5.0278    3.6213   -0.1517 H         1 UNK         0.0000 
     26 H26         3.3480    5.2998   -0.1441 H         1 UNK         0.0000 
     27 O27         2.5538   -7.7663    0.2746 O.3       1 UNK         0.0000 
     28 C28         1.3393   -8.4406    0.4630 C.3       1 UNK         0.0000 
     29 C29         0.1566   -7.5294    0.0959 C.3       1 UNK         0.0000 
     30 H30        -0.7755   -8.1022    0.3013 H         1 UNK         0.0000 
     31 C31         0.1913   -7.2393   -1.3942 C.2       1 UNK         0.0000 
     32 O32         1.2633   -6.6468   -1.9590 O.3       1 UNK         0.0000 
     33 O33        -0.7414   -7.5836   -2.1028 O.2       1 UNK         0.0000 
     34 N34         0.1411   -6.3586    0.9878 N.am      1 UNK         0.0000 
     35 C35         0.1174   -5.0289    0.6346 C.2       1 UNK         0.0000 
     36 O36         0.0948   -4.7433   -0.5453 O.2       1 UNK         0.0000 
     37 C37         0.1045   -3.8996    1.6648 C.ar      1 UNK         0.0000 
     38 C38         0.0500   -2.5015    1.3076 C.ar      1 UNK         0.0000 
     39 O39         0.0000   -2.0800    0.0000 O.co2     1 UNK         0.0000 
     40 C40         0.0474   -1.4931    2.3493 C.ar      1 UNK         0.0000 
     41 O41         0.0000   -0.1405    2.0753 O.co2     1 UNK         0.0000 
     42 C42         0.0956   -1.8845    3.6857 C.ar      1 UNK         0.0000 
     43 C43         0.1475   -3.2233    4.0279 C.ar      1 UNK         0.0000 
     44 C44         0.1530   -4.2091    3.0475 C.ar      1 UNK         0.0000 
     45 H45         3.2681   -8.4176    0.4984 H         1 UNK         0.0000 
     46 H46         1.3083   -9.3549   -0.1726 H         1 UNK         0.0000 
     47 H47         1.2461   -8.7407    1.5307 H         1 UNK         0.0000 
     48 H48         0.1231   -6.6191    1.9773 H         1 UNK         0.0000 
     49 H49         0.0940   -1.1398    4.4719 H         1 UNK         0.0000 
     50 H50         0.1858   -3.5046    5.0725 H         1 UNK         0.0000 
     51 H51         0.1996   -5.2123    3.4272 H         1 UNK         0.0000 
     52 O52        -7.8280    2.3819   -0.4477 O.3       1 UNK         0.0000 
     53 C53        -8.4622    1.1438   -0.6208 C.3       1 UNK         0.0000 
     54 C54        -7.5241   -0.0023   -0.2080 C.3       1 UNK         0.0000 
     55 H55        -8.0648   -0.9558   -0.4024 H         1 UNK         0.0000 
     56 C56        -7.2652    0.0752    1.2863 C.2       1 UNK         0.0000 
     57 O57        -6.7165    1.1771    1.8376 O.2       1 UNK         0.0000 
     58 O58        -7.5958   -0.8513    2.0095 O.3       1 UNK         0.0000 
     59 N59        -6.3360   -0.0034   -1.0774 N.am      1 UNK         0.0000 
     60 C60        -5.0132    0.0229   -0.6984 C.2       1 UNK         0.0000 
     61 O61        -4.7510    0.0392    0.4869 O.2       1 UNK         0.0000 
     62 C62        -3.8637    0.0174   -1.7071 C.ar      1 UNK         0.0000 
     63 C63        -2.4704    0.0085   -1.3233 C.ar      1 UNK         0.0000 
     64 O64        -2.0800    0.0000    0.0000 O.co2     1 UNK         0.0000 
     65 C65        -1.4413    0.0069   -2.3565 C.ar      1 UNK         0.0000 
     66 O66        -0.0849    0.0000   -2.0783 O.co2     1 UNK         0.0000 
     67 C67        -1.8180    0.0138   -3.6981 C.ar      1 UNK         0.0000 
     68 C68        -3.1515    0.0227   -4.0601 C.ar      1 UNK         0.0000 
     69 C69        -4.1510    0.0252   -3.0952 C.ar      1 UNK         0.0000 
     70 H70        -8.4972    3.0714   -0.6954 H         1 UNK         0.0000 
     71 H71        -9.3879    1.0997   -0.0025 H         1 UNK         0.0000 
     72 H72        -8.7378    1.0175   -1.6916 H         1 UNK         0.0000 
     73 H73        -6.5773   -0.0545   -2.0698 H         1 UNK         0.0000 
     74 H74        -1.0636    0.0126   -4.4752 H         1 UNK         0.0000 
     75 H75        -3.4178    0.0287   -5.1094 H         1 UNK         0.0000 
     76 H76        -5.1480    0.0363   -3.4926 H         1 UNK         0.0000 
     77 H77        -2.9576    6.5424    1.0294 H         1 UNK         0.0000 
     78 H78         1.1122   -6.5422   -2.9013 H         1 UNK         0.0000 
     79 H79        -7.3639   -0.6469    2.9184 H         1 UNK         0.0000 
@<TRIPOS>BOND
     1    1   14 nc   
     2    1   16 nc   
     3    1   39 nc   
     4    1   41 nc   
     5    1   64 nc   
     6    1   66 nc   
     7    2   20 1    
     8    2    3 1    
     9    3    4 1    
    10    3   21 1    
    11    3   22 1    
    12    4    5 1    
    13    4    6 1    
    14    4    9 1    
    15    6    7 1    
    16    6    8 2    
    17    7   77 1    
    18    9   10 am   BACKBONE|DICT|INTERRES
    19    9   23 1    
    20   10   11 2    
    21   10   12 1    
    22   12   13 ar   
    23   12   19 ar   
    24   13   14 1    
    25   13   15 ar   
    26   15   16 1    
    27   15   17 ar   
    28   17   18 ar   
    29   17   24 1    
    30   18   19 ar   
    31   18   25 1    
    32   19   26 1    
    33   27   28 1    
    34   27   45 1    
    35   28   47 1    
    36   28   29 1    
    37   28   46 1    
    38   29   30 1    
    39   29   34 1    
    40   29   31 1    
    41   31   32 1    
    42   31   33 2    
    43   32   78 1    
    44   34   48 1    
    45   34   35 am   BACKBONE|DICT|INTERRES
    46   35   37 1    
    47   35   36 2    
    48   37   44 ar   
    49   37   38 ar   
    50   38   40 ar   
    51   38   39 1    
    52   40   42 ar   
    53   40   41 1    
    54   42   43 ar   
    55   42   49 1    
    56   43   50 1    
    57   43   44 ar   
    58   44   51 1    
    59   52   53 1    
    60   52   70 1    
    61   53   54 1    
    62   53   71 1    
    63   53   72 1    
    64   54   55 1    
    65   54   56 1    
    66   54   59 1    
    67   56   57 2    
    68   56   58 1    
    69   58   79 1    
    70   59   60 am   BACKBONE|DICT|INTERRES
    71   59   73 1    
    72   60   61 2    
    73   60   62 1    
    74   62   63 ar   
    75   62   69 ar   
    76   63   64 1    
    77   63   65 ar   
    78   65   66 1    
    79   65   67 ar   
    80   67   68 ar   
    81   67   74 1    
    82   68   69 ar   
    83   68   75 1    
    84   69   76 1    
@<TRIPOS>SUBSTRUCTURE
     1 UNK         1 GROUP             0       ****    0 ROOT    
