@<TRIPOS>MOLECULE
179_D1i_c1
82   90    1
SMALL
USER_CHARGES


@<TRIPOS>ATOM
      1 Fe1        -0.4288   -0.6469    0.6297 Fe        1 UNK         0.0000 
      2 O2          1.3985   -0.1071    1.4430 O.co2     1 UNK         0.0000 
      3 N3          1.6565    1.2005    1.3902 N.am      1 UNK         0.0000 
      4 C4          0.5074    1.9204    1.2486 C.2       1 UNK         0.0000 
      5 O5         -0.5335    1.2547    1.2242 O.co2     1 UNK         0.0000 
      6 C6          0.6505    3.3572    0.6709 C.3       1 UNK         0.0000 
      7 H7         -0.0860    3.9220    1.2339 H         1 UNK         0.0000 
      8 C8          2.0191    3.9748    1.0187 C.3       1 UNK         0.0000 
      9 C9          3.1330    3.0611    0.5195 C.3       1 UNK         0.0000 
     10 C10         3.0420    1.6533    1.1461 C.3       1 UNK         0.0000 
     11 N11         0.2162    3.4524   -0.7617 N.am      1 UNK         0.0000 
     12 C12        -0.3026    4.7097   -1.2860 C.3       1 UNK         0.0000 
     13 H13         0.3451    5.5413   -0.9864 H         1 UNK         0.0000 
     14 C14        -1.7366    5.0196   -0.8156 C.3       1 UNK         0.0000 
     15 N15        -0.0329    4.5750   -2.7885 N.4       1 UNK         0.0000 
     16 H16         0.9319    4.8530   -2.9070 H         1 UNK         0.0000 
     17 C17        -0.8692    5.4977   -3.7009 C.3       1 UNK         0.0000 
     18 C18        -0.0903    3.0638   -3.0801 C.3       1 UNK         0.0000 
     19 H19         0.6960    2.9211   -3.8202 H         1 UNK         0.0000 
     20 C20         0.3924    2.4986   -1.7281 C.2       1 UNK         0.0000 
     21 O21         0.9341    1.4031   -1.5892 O.2       1 UNK         0.0000 
     22 C22        -1.4315    2.4542   -3.6033 C.3       1 UNK         0.0000 
     23 C23        -1.4164    1.0008   -4.1653 C.3       1 UNK         0.0000 
     24 C24        -2.0889   -0.1134   -3.3151 C.3       1 UNK         0.0000 
     25 N25        -1.3008   -0.5612   -2.1635 N.am      1 UNK         0.0000 
     26 O26        -1.6861   -0.1339   -0.9672 O.co2     1 UNK         0.0000 
     27 C27        -0.2098   -1.3655   -2.2017 C.2       1 UNK         0.0000 
     28 O28         0.2490   -1.5507   -1.0825 O.co2     1 UNK         0.0000 
     29 C29         0.4603   -1.9042   -3.4617 C.3       1 UNK         0.0000 
     30 C30         2.0093   -2.0040   -3.3883 C.3       1 UNK         0.0000 
     31 N31         2.6107   -2.9980   -2.4741 N.am      1 UNK         0.0000 
     32 C32         2.5601   -4.3278   -2.6926 C.2       1 UNK         0.0000 
     33 O33         1.8539   -4.8010   -3.5757 O.2       1 UNK         0.0000 
     34 C34         3.4632   -5.2685   -1.8678 C.3       1 UNK         0.0000 
     35 N35         3.1839   -5.5804   -0.4487 N.am      1 UNK         0.0000 
     36 C36         2.2752   -5.2654    0.4977 C.2       1 UNK         0.0000 
     37 O37         2.3989   -5.8069    1.5923 O.2       1 UNK         0.0000 
     38 C38         1.1670   -4.2007    0.3023 C.3       1 UNK         0.0000 
     39 H39         1.0434   -4.0028   -0.7492 H         1 UNK         0.0000 
     40 N40        -0.1472   -4.6026    0.7388 N.2       1 UNK         0.0000 
     41 C41        -0.7029   -3.5393    1.1916 C.2       1 UNK         0.0000 
     42 O42         0.1385   -2.4278    1.2554 O.3       1 UNK         0.0000 
     43 C43         1.4659   -2.9601    1.1290 C.3       1 UNK         0.0000 
     44 C44        -2.1032   -3.3588    1.6139 C.ar      1 UNK         0.0000 
     45 C45        -2.6509   -2.0879    1.9067 C.ar      1 UNK         0.0000 
     46 O46        -1.9840   -1.0144    1.8833 O.co2     1 UNK         0.0000 
     47 C47        -4.0037   -1.9875    2.2366 C.ar      1 UNK         0.0000 
     48 C48        -4.8298   -3.1100    2.2429 C.ar      1 UNK         0.0000 
     49 C49        -4.2976   -4.3602    1.9536 C.ar      1 UNK         0.0000 
     50 C50        -2.9431   -4.4873    1.6558 C.ar      1 UNK         0.0000 
     51 H51         2.1222    4.1020    2.1015 H         1 UNK         0.0000 
     52 H52         2.1295    4.9723    0.5983 H         1 UNK         0.0000 
     53 H53         3.0628    2.9720   -0.5643 H         1 UNK         0.0000 
     54 H54         4.1222    3.4898    0.7057 H         1 UNK         0.0000 
     55 H55         3.5829    1.6214    2.0912 H         1 UNK         0.0000 
     56 H56         3.5426    0.9392    0.4905 H         1 UNK         0.0000 
     57 H57        -2.0832    5.9812   -1.2053 H         1 UNK         0.0000 
     58 H58        -1.7825    5.0940    0.2735 H         1 UNK         0.0000 
     59 H59        -2.4547    4.2530   -1.1160 H         1 UNK         0.0000 
     60 H60        -0.6618    6.5217   -3.3886 H         1 UNK         0.0000 
     61 H61        -0.5353    5.3321   -4.7250 H         1 UNK         0.0000 
     62 H62        -1.9277    5.2622   -3.5884 H         1 UNK         0.0000 
     63 H63        -1.7218    3.0749   -4.4507 H         1 UNK         0.0000 
     64 H64        -2.2269    2.5604   -2.8597 H         1 UNK         0.0000 
     65 H65        -1.9704    1.0137   -5.1042 H         1 UNK         0.0000 
     66 H66        -0.4132    0.6936   -4.4567 H         1 UNK         0.0000 
     67 H67        -2.2989   -0.9799   -3.9490 H         1 UNK         0.0000 
     68 H68        -3.0751    0.2278   -2.9781 H         1 UNK         0.0000 
     69 H69         0.0732   -2.9142   -3.5536 H         1 UNK         0.0000 
     70 H70         0.1258   -1.4457   -4.3823 H         1 UNK         0.0000 
     71 H71         2.3791   -1.0144   -3.1048 H         1 UNK         0.0000 
     72 H72         2.4069   -2.1153   -4.3990 H         1 UNK         0.0000 
     73 H73         3.2275   -2.6519   -1.7540 H         1 UNK         0.0000 
     74 H74         3.4694   -6.2288   -2.3846 H         1 UNK         0.0000 
     75 H75         4.4815   -4.8983   -1.9392 H         1 UNK         0.0000 
     76 H76         3.8295   -6.2705   -0.0982 H         1 UNK         0.0000 
     77 H77         1.8541   -3.1774    2.1288 H         1 UNK         0.0000 
     78 H78         2.1753   -2.3081    0.6281 H         1 UNK         0.0000 
     79 H79        -4.4233   -1.0229    2.4818 H         1 UNK         0.0000 
     80 H80        -5.8780   -3.0014    2.4793 H         1 UNK         0.0000 
     81 H81        -4.9421   -5.2244    1.9615 H         1 UNK         0.0000 
     82 H82        -2.5669   -5.4788    1.4163 H         1 UNK         0.0000 
@<TRIPOS>BOND
     1    1    2 nc   
     2    1    5 nc   
     3    1   26 nc   
     4    1   28 nc   
     5    1   42 nc   
     6    1   46 nc   
     7    2    3 1    
     8    3    4 am   BACKBONE|DICT|INTERRES
     9    3   10 1    
    10    4    5 2    
    11    4    6 1    
    12    6    8 1    
    13    6    7 1    
    14    6   11 1    
    15    8   51 1    
    16    8    9 1    
    17    8   52 1    
    18    9   54 1    
    19    9   10 1    
    20    9   53 1    
    21   10   55 1    
    22   10   56 1    
    23   11   12 1    
    24   11   20 am   BACKBONE|DICT|INTERRES
    25   12   13 1    
    26   12   14 1    
    27   12   15 1    
    28   14   58 1    
    29   14   57 1    
    30   14   59 1    
    31   15   16 1    
    32   15   17 1    
    33   15   18 1    
    34   17   62 1    
    35   17   60 1    
    36   17   61 1    
    37   18   19 1    
    38   18   20 1    
    39   18   22 1    
    40   20   21 2    
    41   22   64 1    
    42   22   23 1    
    43   22   63 1    
    44   23   24 1    
    45   23   65 1    
    46   23   66 1    
    47   24   68 1    
    48   24   25 1    
    49   24   67 1    
    50   25   27 am   BACKBONE|DICT|INTERRES
    51   25   26 1    
    52   27   29 1    
    53   27   28 2    
    54   29   30 1    
    55   29   69 1    
    56   29   70 1    
    57   30   71 1    
    58   30   31 1    
    59   30   72 1    
    60   31   73 1    
    61   31   32 am   BACKBONE|DICT|INTERRES
    62   32   34 1    
    63   32   33 2    
    64   34   35 1    
    65   34   74 1    
    66   34   75 1    
    67   35   76 1    
    68   35   36 am   BACKBONE|DICT|INTERRES
    69   36   37 2    
    70   36   38 1    
    71   38   39 1    
    72   38   40 1    
    73   38   43 1    
    74   40   41 2    
    75   41   42 1    
    76   41   44 1    
    77   42   43 1    
    78   43   77 1    
    79   43   78 1    
    80   44   50 ar   
    81   44   45 ar   
    82   45   47 ar   
    83   45   46 1    
    84   47   48 ar   
    85   47   79 1    
    86   48   80 1    
    87   48   49 ar   
    88   49   81 1    
    89   49   50 ar   
    90   50   82 1    
@<TRIPOS>SUBSTRUCTURE
     1 UNK         1 GROUP             0       ****    0 ROOT    
