@<TRIPOS>MOLECULE
248_B_c1
77   86    1
SMALL
USER_CHARGES


@<TRIPOS>ATOM
      1 O1          4.5053   -2.0970    0.0138 O.co2     1 UNK         0.0000 
      2 C2          3.6437   -1.1814   -0.1746 C.2       1 UNK         0.0000 
      3 O3          3.8032   -0.2181   -0.9749 O.co2     1 UNK         0.0000 
      4 C4          2.5052   -0.9744    0.8532 C.3       1 UNK         0.0000 
      5 C5          1.1900   -0.8443   -0.0014 C.3       1 UNK         0.0000 
      6 N6          2.9522    0.2156    1.6055 N.3       1 UNK         0.0000 
      7 C7          1.9411    1.0703    2.1717 C.3       1 UNK         0.0000 
      8 C8          4.1114   -0.1408    2.4337 C.3       1 UNK         0.0000 
      9 H9          4.0220    0.3881    3.3903 H         1 UNK         0.0000 
     10 S10         3.8478   -1.8607    3.0023 S.3       1 UNK         0.0000 
     11 C11         2.4185   -2.1256    1.8940 C.3       1 UNK         0.0000 
     12 C12         5.5675    0.3122    1.9362 C.3       1 UNK         0.0000 
     13 H13         6.1392   -0.1589    2.7580 H         1 UNK         0.0000 
     14 N14         6.2513   -0.0484    0.6322 N.pl3     1 UNK         0.0000 
     15 C15         7.3919    0.4763    0.8055 C.2       1 UNK         0.0000 
     16 S16         7.3508    2.1856    1.3282 S.3       1 UNK         0.0000 
     17 C17         5.7306    1.8323    2.0186 C.3       1 UNK         0.0000 
     18 C18         8.5268   -0.4035    1.1928 C.ar      1 UNK         0.0000 
     19 C19         8.3573   -1.8131    1.3910 C.ar      1 UNK         0.0000 
     20 O20         7.3379   -2.5078    0.9838 O.co2     1 UNK         0.0000 
     21 C21         9.3991   -2.5496    1.9405 C.ar      1 UNK         0.0000 
     22 C22        10.6191   -1.9469    2.2492 C.ar      1 UNK         0.0000 
     23 C23        10.8219   -0.5918    1.9910 C.ar      1 UNK         0.0000 
     24 C24         9.7808    0.1751    1.4655 C.ar      1 UNK         0.0000 
     25 H25         0.2966   -0.6370    0.5684 H         1 UNK         0.0000 
     26 H26         1.0205   -1.7540   -0.5829 H         1 UNK         0.0000 
     27 H27         1.2956   -0.0629   -0.7533 H         1 UNK         0.0000 
     28 H28         1.3136    1.4266    1.3589 H         1 UNK         0.0000 
     29 H29         2.4149    1.9265    2.6400 H         1 UNK         0.0000 
     30 H30         1.3274    0.5281    2.8916 H         1 UNK         0.0000 
     31 H31         1.5236   -2.0311    2.5063 H         1 UNK         0.0000 
     32 H32         2.4183   -3.1367    1.4780 H         1 UNK         0.0000 
     33 H33         4.9893    2.3206    1.4029 H         1 UNK         0.0000 
     34 H34         5.6432    2.1825    3.0424 H         1 UNK         0.0000 
     35 H35         9.2800   -3.6158    2.0693 H         1 UNK         0.0000 
     36 H36        11.4265   -2.5446    2.6309 H         1 UNK         0.0000 
     37 H37        11.7680   -0.1081    2.2077 H         1 UNK         0.0000 
     38 H38         9.9682    1.2187    1.2217 H         1 UNK         0.0000 
     39 S39         6.7174   -2.2024   -5.2785 S.3       1 UNK         0.0000 
     40 H40         4.7068   -1.6699   -6.4008 H         1 UNK         0.0000 
     41 C41         5.0123   -1.5634   -5.3622 C.3       1 UNK         0.0000 
     42 H42         4.9622   -0.5026   -5.1029 H         1 UNK         0.0000 
     43 O43         8.2039   -1.4455   -1.6563 O.co2     1 UNK         0.0000 
     44 H44         2.2772   -2.4895   -5.6831 H         1 UNK         0.0000 
     45 H45         2.3505   -1.2551   -4.4231 H         1 UNK         0.0000 
     46 C46         2.6234   -2.2819   -4.6807 C.3       1 UNK         0.0000 
     47 C47         6.1797   -3.8288   -4.6420 C.3       1 UNK         0.0000 
     48 C48         4.1701   -2.5036   -4.4604 C.3       1 UNK         0.0000 
     49 H49         6.5361   -4.4967   -5.4336 H         1 UNK         0.0000 
     50 C50         9.2153   -2.2421   -1.4985 C.ar      1 UNK         0.0000 
     51 O51         5.3546   -1.5495   -2.5446 O.co2     1 UNK         0.0000 
     52 H52        10.5158   -0.5571   -1.6543 H         1 UNK         0.0000 
     53 H53         7.9439   -4.1638   -3.7540 H         1 UNK         0.0000 
     54 N54         6.8612   -3.8200   -1.9490 N.pl3     1 UNK         0.0000 
     55 C55         6.9355   -4.3800   -3.3511 C.3       1 UNK         0.0000 
     56 H56         4.0222   -4.4479   -6.5541 H         1 UNK         0.0000 
     57 C57        10.4579   -1.6221   -1.4819 C.ar      1 UNK         0.0000 
     58 N58         4.7175   -3.8518   -4.6848 N.3       1 UNK         0.0000 
     59 C59         4.3993   -2.3149   -2.9419 C.2       1 UNK         0.0000 
     60 H60         2.0357   -2.8915   -3.9929 H         1 UNK         0.0000 
     61 C61         4.0121   -4.7893   -5.5185 C.3       1 UNK         0.0000 
     62 C62         9.1269   -3.6476   -1.2227 C.ar      1 UNK         0.0000 
     63 C63         7.8532   -4.4032   -1.4106 C.2       1 UNK         0.0000 
     64 C64        11.6147   -2.3402   -1.1781 C.ar      1 UNK         0.0000 
     65 C65         6.8524   -5.8894   -3.1467 C.3       1 UNK         0.0000 
     66 H66         2.9832   -4.8501   -5.1685 H         1 UNK         0.0000 
     67 H67         4.4599   -5.7745   -5.4306 H         1 UNK         0.0000 
     68 O68         3.7838   -3.1397   -2.2322 O.co2     1 UNK         0.0000 
     69 H69        12.5630   -1.8357   -1.1526 H         1 UNK         0.0000 
     70 H70         7.2326   -6.4236   -4.0123 H         1 UNK         0.0000 
     71 C71        10.3029   -4.3444   -0.8781 C.ar      1 UNK         0.0000 
     72 H72         5.8378   -6.1991   -2.9561 H         1 UNK         0.0000 
     73 C73        11.5395   -3.6954   -0.8616 C.ar      1 UNK         0.0000 
     74 S74         7.8405   -6.1807   -1.6669 S.3       1 UNK         0.0000 
     75 H75        10.2562   -5.3899   -0.5865 H         1 UNK         0.0000 
     76 H76        12.4260   -4.2719   -0.6235 H         1 UNK         0.0000 
     77 Fe77        6.4218   -1.8881   -0.7588 Fe        1 UNK         0.0000 
@<TRIPOS>BOND
     1    1    2 1    
     2    1   77 nc   
     3    2    3 2    
     4    2    4 1    
     5    4    6 1    
     6    4   11 1    
     7    4    5 1    
     8    5   25 1    
     9    5   26 1    
    10    5   27 1    
    11    6    7 1    
    12    6    8 1    
    13    7   28 1    
    14    7   29 1    
    15    7   30 1    
    16    8    9 1    
    17    8   10 1    
    18    8   12 1    
    19   10   11 1    
    20   11   31 1    
    21   11   32 1    
    22   12   13 1    
    23   12   14 1    
    24   12   17 1    
    25   14   15 2    
    26   14   77 nc   
    27   15   16 1    
    28   15   18 1    
    29   16   17 1    
    30   17   33 1    
    31   17   34 1    
    32   18   19 ar   
    33   18   24 ar   
    34   19   20 1    
    35   19   21 ar   
    36   20   77 nc   
    37   21   22 ar   
    38   21   35 1    
    39   22   23 ar   
    40   22   36 1    
    41   23   24 ar   
    42   23   37 1    
    43   24   38 1    
    44   39   41 1    
    45   39   47 1    
    46   40   41 1    
    47   41   42 1    
    48   41   48 1    
    49   43   50 1    
    50   43   77 nc   
    51   44   46 1    
    52   45   46 1    
    53   46   60 1    
    54   46   48 1    
    55   47   49 1    
    56   47   55 1    
    57   47   58 1    
    58   48   58 1    
    59   48   59 1    
    60   50   57 ar   
    61   50   62 ar   
    62   51   59 1    
    63   51   77 nc   
    64   52   57 1    
    65   53   55 1    
    66   54   63 2    
    67   54   55 1    
    68   54   77 nc   
    69   55   65 1    
    70   56   61 1    
    71   57   64 ar   
    72   58   61 1    
    73   59   68 2    
    74   61   66 1    
    75   61   67 1    
    76   62   71 ar   
    77   62   63 1    
    78   63   74 1    
    79   64   73 ar   
    80   64   69 1    
    81   65   72 1    
    82   65   70 1    
    83   65   74 1    
    84   71   75 1    
    85   71   73 ar   
    86   73   76 1    
@<TRIPOS>SUBSTRUCTURE
     1 UNK         1 GROUP             0       ****    0 ROOT    
