@<TRIPOS>MOLECULE
265_c1
231   244    1
SMALL
USER_CHARGES


@<TRIPOS>ATOM
      1 C1         -8.2317    4.9534   -1.3737 C.ar      1 UNK         0.0000 
      2 C2         -7.8638    3.6687   -0.9849 C.ar      1 UNK         0.0000 
      3 C3         -7.1702    2.8491   -1.8740 C.ar      1 UNK         0.0000 
      4 C4         -6.8426    3.3008   -3.1511 C.ar      1 UNK         0.0000 
      5 C5         -7.2066    4.5846   -3.5431 C.ar      1 UNK         0.0000 
      6 C6         -7.8937    5.4137   -2.6509 C.ar      1 UNK         0.0000 
      7 C7         -8.2548    6.8235   -3.0769 C.3       1 UNK         0.0000 
      8 O8         -9.0718    6.7384   -4.2480 O.3       1 UNK         0.0000 
      9 C9         -9.6937    7.9156   -4.7394 C.3       1 UNK         0.0000 
     10 H10       -10.0537    7.6376   -5.7294 H         1 UNK         0.0000 
     11 C11        -8.7062    9.0815   -4.9421 C.3       1 UNK         0.0000 
     12 C12       -10.9288    8.2909   -3.8749 C.3       1 UNK         0.0000 
     13 H13       -10.5811    8.5461   -2.8703 H         1 UNK         0.0000 
     14 N14       -11.6269    9.4538   -4.4604 N.am      1 UNK         0.0000 
     15 C15       -12.2289   10.3952   -3.7317 C.2       1 UNK         0.0000 
     16 O16       -12.3115   10.3480   -2.5140 O.2       1 UNK         0.0000 
     17 C17       -11.9240    7.1153   -3.6939 C.2       1 UNK         0.0000 
     18 O18       -13.1058    7.2915   -4.1133 O.2       1 UNK         0.0000 
     19 N19       -11.4896    5.9658   -3.1192 N.am      1 UNK         0.0000 
     20 C20       -12.1707    4.6514   -3.0653 C.3       1 UNK         0.0000 
     21 C21       -12.2962    3.9646   -1.6659 C.3       1 UNK         0.0000 
     22 C22       -13.6937    3.9627   -0.9481 C.3       1 UNK         0.0000 
     23 C23       -13.9092    4.9139    0.2752 C.3       1 UNK         0.0000 
     24 C24       -13.6555    6.4212    0.0699 C.3       1 UNK         0.0000 
     25 C25       -14.0936    6.9509   -1.2957 C.3       1 UNK         0.0000 
     26 C26       -15.5419    6.9883   -1.7558 C.2       1 UNK         0.0000 
     27 O27       -15.7439    7.0998   -2.9976 O.2       1 UNK         0.0000 
     28 N28       -16.5061    7.0618   -0.8240 N.am      1 UNK         0.0000 
     29 C29       -17.7203    7.8757   -0.9720 C.3       1 UNK         0.0000 
     30 H30       -18.3256    7.4946   -1.7896 H         1 UNK         0.0000 
     31 C31       -18.5546    7.8170    0.3326 C.3       1 UNK         0.0000 
     32 C32       -18.8896    6.4266    0.8642 C.ar      1 UNK         0.0000 
     33 C33       -18.2330    5.9411    2.0189 C.ar      1 UNK         0.0000 
     34 C34       -18.5731    4.7027    2.5485 C.ar      1 UNK         0.0000 
     35 C35       -19.5408    3.9204    1.9323 C.ar      1 UNK         0.0000 
     36 C36       -20.1744    4.3663    0.7774 C.ar      1 UNK         0.0000 
     37 C37       -19.8463    5.6018    0.2264 C.ar      1 UNK         0.0000 
     38 C38       -17.1910    9.2997   -1.2579 C.2       1 UNK         0.0000 
     39 O39       -16.6210    9.9112   -0.3663 O.2       1 UNK         0.0000 
     40 N40       -17.1595    9.6838   -2.5407 N.am      1 UNK         0.0000 
     41 C41       -16.5135   10.9252   -2.9764 C.3       1 UNK         0.0000 
     42 H42       -16.2072   11.5393   -2.1240 H         1 UNK         0.0000 
     43 C43       -15.2371   10.6457   -3.8034 C.2       1 UNK         0.0000 
     44 O44       -15.0487    9.5438   -4.3918 O.2       1 UNK         0.0000 
     45 N45       -14.3384   11.6377   -3.8937 N.am      1 UNK         0.0000 
     46 C46       -13.0067   11.4888   -4.4958 C.3       1 UNK         0.0000 
     47 H47       -13.1675   11.1712   -5.5250 H         1 UNK         0.0000 
     48 C48       -12.2409   12.8338   -4.5283 C.3       1 UNK         0.0000 
     49 C49       -12.9081   13.9055   -5.4260 C.3       1 UNK         0.0000 
     50 C50       -12.2401   15.3053   -5.3964 C.3       1 UNK         0.0000 
     51 C51       -11.0138   15.5420   -6.3175 C.3       1 UNK         0.0000 
     52 N52        -9.8160   14.7716   -5.9363 N.4       1 UNK         0.0000 
     53 H53        -9.6118   14.8838   -4.9515 H         1 UNK         0.0000 
     54 H54        -9.9307   13.7928   -6.1520 H         1 UNK         0.0000 
     55 H55        -9.0161   15.1192   -6.4579 H         1 UNK         0.0000 
     56 C56       -17.5515   11.7598   -3.7402 C.3       1 UNK         0.0000 
     57 C57       -18.6844   12.2450   -2.8862 C.ar      1 UNK         0.0000 
     58 C58       -19.7097   11.4949   -2.4032 C.ar      1 UNK         0.0000 
     59 N59       -20.4977   12.2630   -1.5739 N.pl3     1 UNK         0.0000 
     60 H60       -21.3278   11.9122   -1.0982 H         1 UNK         0.0000 
     61 C61       -20.0275   13.5528   -1.4716 C.ar      1 UNK         0.0000 
     62 C62       -18.8642   13.5716   -2.3058 C.ar      1 UNK         0.0000 
     63 C63       -20.4618   14.6891   -0.7650 C.ar      1 UNK         0.0000 
     64 C64       -19.7425   15.8902   -0.8835 C.ar      1 UNK         0.0000 
     65 C65       -18.5942   15.9447   -1.6977 C.ar      1 UNK         0.0000 
     66 C66       -18.1609   14.7953   -2.3927 C.ar      1 UNK         0.0000 
     67 H67        -8.7456    5.5916   -0.6679 H         1 UNK         0.0000 
     68 H68        -8.0904    3.3133    0.0094 H         1 UNK         0.0000 
     69 H69        -6.8650    1.8600   -1.5627 H         1 UNK         0.0000 
     70 H70        -6.2901    2.6649   -3.8268 H         1 UNK         0.0000 
     71 H71        -6.9315    4.9392   -4.5285 H         1 UNK         0.0000 
     72 H72        -7.3361    7.3710   -3.2886 H         1 UNK         0.0000 
     73 H73        -8.7609    7.3368   -2.2554 H         1 UNK         0.0000 
     74 H74        -9.1525    9.9198   -5.4801 H         1 UNK         0.0000 
     75 H75        -7.8432    8.7561   -5.5204 H         1 UNK         0.0000 
     76 H76        -8.3384    9.4688   -3.9897 H         1 UNK         0.0000 
     77 H77       -11.4956    9.5840   -5.4539 H         1 UNK         0.0000 
     78 H78       -10.5054    5.9182   -2.8431 H         1 UNK         0.0000 
     79 H79       -11.5660    4.0019   -3.7044 H         1 UNK         0.0000 
     80 H80       -13.1457    4.6774   -3.5475 H         1 UNK         0.0000 
     81 H81       -11.5072    4.2985   -0.9889 H         1 UNK         0.0000 
     82 H82       -12.0637    2.9085   -1.8441 H         1 UNK         0.0000 
     83 H83       -13.8275    2.9565   -0.5373 H         1 UNK         0.0000 
     84 H84       -14.5188    4.0591   -1.6577 H         1 UNK         0.0000 
     85 H85       -13.2687    4.5832    1.0978 H         1 UNK         0.0000 
     86 H86       -14.9326    4.7980    0.6398 H         1 UNK         0.0000 
     87 H87       -12.5739    6.5731    0.1190 H         1 UNK         0.0000 
     88 H88       -14.0626    7.0269    0.8852 H         1 UNK         0.0000 
     89 H89       -13.6520    6.2671   -1.9852 H         1 UNK         0.0000 
     90 H90       -13.6809    7.9509   -1.4412 H         1 UNK         0.0000 
     91 H91       -16.2661    6.9653    0.1569 H         1 UNK         0.0000 
     92 H92       -19.5044    8.3308    0.1637 H         1 UNK         0.0000 
     93 H93       -18.0637    8.3752    1.1344 H         1 UNK         0.0000 
     94 H94       -17.5236    6.5595    2.5532 H         1 UNK         0.0000 
     95 H95       -18.1203    4.3705    3.4759 H         1 UNK         0.0000 
     96 H96       -19.8320    2.9835    2.3921 H         1 UNK         0.0000 
     97 H97       -20.9684    3.7707    0.3489 H         1 UNK         0.0000 
     98 H98       -20.3962    5.9576   -0.6326 H         1 UNK         0.0000 
     99 H99       -17.8571    9.2883   -3.1460 H         1 UNK         0.0000 
    100 H100      -14.4728   12.4860   -3.3588 H         1 UNK         0.0000 
    101 H101      -11.2317   12.6487   -4.8890 H         1 UNK         0.0000 
    102 H102      -12.1311   13.2221   -3.5126 H         1 UNK         0.0000 
    103 H103      -13.9423   14.0501   -5.0920 H         1 UNK         0.0000 
    104 H104      -12.9928   13.5523   -6.4583 H         1 UNK         0.0000 
    105 H105      -11.9758   15.5591   -4.3657 H         1 UNK         0.0000 
    106 H106      -13.0054   16.0369   -5.6629 H         1 UNK         0.0000 
    107 H107      -10.7438   16.5959   -6.2631 H         1 UNK         0.0000 
    108 H108      -11.2689   15.3439   -7.3607 H         1 UNK         0.0000 
    109 H109      -17.9381   11.2036   -4.5893 H         1 UNK         0.0000 
    110 H110      -17.0937   12.6609   -4.1440 H         1 UNK         0.0000 
    111 H111      -19.8774   10.4461   -2.6025 H         1 UNK         0.0000 
    112 H112      -21.3373   14.6535   -0.1409 H         1 UNK         0.0000 
    113 H113      -20.0710   16.7767   -0.3589 H         1 UNK         0.0000 
    114 H114      -18.0574   16.8739   -1.7907 H         1 UNK         0.0000 
    115 H115      -17.2855   14.8797   -3.0105 H         1 UNK         0.0000 
    116 H116      -11.7187   12.3065  -11.8724 H         1 UNK         0.0000 
    117 C117      -12.6613   12.1629  -11.3583 C.ar      1 UNK         0.0000 
    118 H118      -11.9449   12.9440   -9.5110 H         1 UNK         0.0000 
    119 C119      -12.7978   12.5235  -10.0230 C.ar      1 UNK         0.0000 
    120 C120      -13.7385   11.6400  -12.0598 C.ar      1 UNK         0.0000 
    121 H121      -13.6278   11.3847  -13.1072 H         1 UNK         0.0000 
    122 C122      -14.0213   12.3665   -9.3751 C.ar      1 UNK         0.0000 
    123 C123      -14.9661   11.4706  -11.4333 C.ar      1 UNK         0.0000 
    124 H124      -12.3710    8.1716  -10.8691 H         1 UNK         0.0000 
    125 C125      -15.1359   11.8523  -10.0822 C.ar      1 UNK         0.0000 
    126 H126      -14.1221   12.6672   -8.3445 H         1 UNK         0.0000 
    127 C127      -12.8555    7.6667  -10.0249 C.3       1 UNK         0.0000 
    128 H128      -10.8597    7.2378   -9.5044 H         1 UNK         0.0000 
    129 H129      -15.7961   11.0798  -12.0073 H         1 UNK         0.0000 
    130 H130      -14.7255    7.7942  -11.1455 H         1 UNK         0.0000 
    131 C131      -14.1325    7.0257  -10.6365 C.3       1 UNK         0.0000 
    132 H132      -13.8246    6.3423  -11.4344 H         1 UNK         0.0000 
    133 C133      -11.8032    6.7000   -9.4023 C.3       1 UNK         0.0000 
    134 H134      -13.0795    8.4999   -9.3578 H         1 UNK         0.0000 
    135 H135      -11.6786    5.8080  -10.0165 H         1 UNK         0.0000 
    136 C136      -16.4834   11.6181   -9.3955 C.3       1 UNK         0.0000 
    137 H137      -16.7876   12.5669   -8.9476 H         1 UNK         0.0000 
    138 O138      -14.9380    8.4677   -6.8418 O.2       1 UNK         0.0000 
    139 C139      -15.0541    6.2387   -9.6873 C.3       1 UNK         0.0000 
    140 C140      -11.9005    6.3275   -7.8948 C.3       1 UNK         0.0000 
    141 H141      -15.9817   10.9356   -7.4050 H         1 UNK         0.0000 
    142 H142      -17.2343   11.3933  -10.1601 H         1 UNK         0.0000 
    143 C143      -16.4520   10.5275   -8.2947 C.3       1 UNK         0.0000 
    144 C144      -15.3582    8.3465   -8.0298 C.2       1 UNK         0.0000 
    145 H145      -12.2056    7.2163   -7.3373 H         1 UNK         0.0000 
    146 N146      -15.6669    9.4001   -8.7892 N.am      1 UNK         0.0000 
    147 H147      -10.8896    6.1154   -7.5309 H         1 UNK         0.0000 
    148 H148      -15.7985    5.7365  -10.3088 H         1 UNK         0.0000 
    149 C149      -15.8557    7.0092   -8.6026 C.3       1 UNK         0.0000 
    150 H150      -14.5122    5.4025   -9.2630 H         1 UNK         0.0000 
    151 H151      -10.2434    2.1985  -11.7909 H         1 UNK         0.0000 
    152 H152      -16.8422    7.2137   -9.0347 H         1 UNK         0.0000 
    153 H153      -21.2320   13.1933   -6.9968 H         1 UNK         0.0000 
    154 H154       -8.4006    0.9793  -10.6851 H         1 UNK         0.0000 
    155 N155      -12.7373    5.1498   -7.5566 N.am      1 UNK         0.0000 
    156 C156      -10.3613    1.8480  -10.7767 C.ar      1 UNK         0.0000 
    157 H157      -15.9121    9.2346   -9.7617 H         1 UNK         0.0000 
    158 C158       -9.3231    1.1585  -10.1509 C.ar      1 UNK         0.0000 
    159 H159      -19.2670   11.7654   -6.2385 H         1 UNK         0.0000 
    160 C160      -17.8153    9.8570   -7.9909 C.2       1 UNK         0.0000 
    161 H161      -12.4352    4.2658   -7.9758 H         1 UNK         0.0000 
    162 N162      -21.3528   12.2512   -6.6246 N.pl3     1 UNK         0.0000 
    163 O163      -14.1211    6.1869   -6.0865 O.2       1 UNK         0.0000 
    164 C164      -13.7684    5.1515   -6.6863 C.2       1 UNK         0.0000 
    165 O165      -18.5060    9.4482   -8.9122 O.2       1 UNK         0.0000 
    166 C166      -11.5575    2.0608  -10.0990 C.ar      1 UNK         0.0000 
    167 C167      -20.3028   11.4599   -6.2103 C.ar      1 UNK         0.0000 
    168 H168      -16.0770    6.3609   -7.7683 H         1 UNK         0.0000 
    169 H169      -17.5674   10.0433   -6.0107 H         1 UNK         0.0000 
    170 N170      -17.9935    9.4720   -6.7171 N.am      1 UNK         0.0000 
    171 C171       -9.4696    0.6833   -8.8485 C.ar      1 UNK         0.0000 
    172 H172      -12.3651    2.5761  -10.6007 H         1 UNK         0.0000 
    173 H173      -24.1331   12.9422   -7.1656 H         1 UNK         0.0000 
    174 H174       -8.6649    0.1418   -8.3741 H         1 UNK         0.0000 
    175 C175      -22.5622   11.6068   -6.4844 C.ar      1 UNK         0.0000 
    176 C176      -11.7111    1.5738   -8.7973 C.ar      1 UNK         0.0000 
    177 C177      -10.6651    0.8900   -8.1689 C.ar      1 UNK         0.0000 
    178 C178      -23.8945   11.9761   -6.7545 C.ar      1 UNK         0.0000 
    179 C179      -14.6399    3.8901   -6.4323 C.3       1 UNK         0.0000 
    180 C180      -20.7662   10.2496   -5.7984 C.ar      1 UNK         0.0000 
    181 C181      -18.9514    8.4446   -6.2671 C.3       1 UNK         0.0000 
    182 H182      -15.0676    3.6333   -7.4047 H         1 UNK         0.0000 
    183 N183      -15.7384    4.2281   -5.4841 N.am      1 UNK         0.0000 
    184 H184      -19.4103    9.4242   -4.3981 H         1 UNK         0.0000 
    185 O185      -12.7540    2.4006   -6.8116 O.3       1 UNK         0.0000 
    186 C186      -13.0241    1.7627   -8.0637 C.3       1 UNK         0.0000 
    187 C187      -22.2179   10.3243   -5.9452 C.ar      1 UNK         0.0000 
    188 H188      -19.7273    5.9411   -5.5965 H         1 UNK         0.0000 
    189 C189      -19.9418    9.0997   -5.2877 C.3       1 UNK         0.0000 
    190 H190      -19.5199    8.0418   -7.1079 H         1 UNK         0.0000 
    191 N191      -18.7732    6.1069   -5.3020 N.am      1 UNK         0.0000 
    192 H192      -13.7109    2.3506   -8.6789 H         1 UNK         0.0000 
    193 C193      -17.0009    4.4586   -5.8730 C.2       1 UNK         0.0000 
    194 O194      -17.3566    4.4462   -7.0374 O.2       1 UNK         0.0000 
    195 C195      -18.1707    7.2754   -5.5987 C.2       1 UNK         0.0000 
    196 C196      -13.8316    2.6674   -5.9333 C.3       1 UNK         0.0000 
    197 H197      -15.5474    3.9934   -4.5198 H         1 UNK         0.0000 
    198 H198      -10.7820    0.4989   -7.1664 H         1 UNK         0.0000 
    199 C199      -24.9305   11.0701   -6.4719 C.ar      1 UNK         0.0000 
    200 H200      -13.3468    2.9358   -4.9993 H         1 UNK         0.0000 
    201 C201      -18.0200    4.9268   -4.8078 C.3       1 UNK         0.0000 
    202 H202      -25.9593   11.3422   -6.6623 H         1 UNK         0.0000 
    203 O203      -16.9599    7.4304   -5.3357 O.2       1 UNK         0.0000 
    204 H204      -20.6654    8.3565   -4.9611 H         1 UNK         0.0000 
    205 H205      -17.4815    5.2396   -3.9151 H         1 UNK         0.0000 
    206 C206      -23.2889    9.4398   -5.6793 C.ar      1 UNK         0.0000 
    207 H207      -13.4690    0.7785   -7.9145 H         1 UNK         0.0000 
    208 C208      -24.6288    9.8042   -5.9324 C.ar      1 UNK         0.0000 
    209 C209      -14.7082    1.4374   -5.6317 C.3       1 UNK         0.0000 
    210 H210      -23.1043    8.4643   -5.2679 H         1 UNK         0.0000 
    211 H211      -15.3066    1.1477   -6.4991 H         1 UNK         0.0000 
    212 H212      -15.4031    1.6135   -4.8085 H         1 UNK         0.0000 
    213 C213      -18.9325    3.7542   -4.3953 C.3       1 UNK         0.0000 
    214 H214      -25.4292    9.1167   -5.7145 H         1 UNK         0.0000 
    215 H215      -19.5880    3.4976   -5.2312 H         1 UNK         0.0000 
    216 H216      -14.0948    0.5821   -5.3524 H         1 UNK         0.0000 
    217 H217      -18.3034    2.8820   -4.2133 H         1 UNK         0.0000 
    218 H218      -20.4007    4.8946   -3.3108 H         1 UNK         0.0000 
    219 C219      -19.7584    4.0270   -3.1193 C.3       1 UNK         0.0000 
    220 H220      -19.1097    4.3300   -2.2908 H         1 UNK         0.0000 
    221 H221      -18.2815    1.2870   -2.7151 H         1 UNK         0.0000 
    222 C222      -20.6870    2.8638   -2.6761 C.3       1 UNK         0.0000 
    223 H223      -21.1675    2.4247   -3.5556 H         1 UNK         0.0000 
    224 H224      -21.5117    3.3070   -2.1160 H         1 UNK         0.0000 
    225 H225      -19.5751    0.4873   -3.3727 H         1 UNK         0.0000 
    226 N226      -19.1572    0.8293   -2.5167 N.4       1 UNK         0.0000 
    227 C227      -20.0786    1.7313   -1.8009 C.3       1 UNK         0.0000 
    228 H228      -19.5840    2.1411   -0.9186 H         1 UNK         0.0000 
    229 H229      -18.9598    0.0228   -1.9308 H         1 UNK         0.0000 
    230 H230      -20.8942    1.1097   -1.4307 H         1 UNK         0.0000 
    231 Fe231     -15.0063    7.5770   -4.9092 Fe        1 UNK         0.0000 
@<TRIPOS>BOND
     1    1    2 ar   
     2    1    6 ar   
     3    1   67 1    
     4    2    3 ar   
     5    2   68 1    
     6    3    4 ar   
     7    3   69 1    
     8    4    5 ar   
     9    4   70 1    
    10    5    6 ar   
    11    5   71 1    
    12    6    7 1    
    13    7    8 1    
    14    7   72 1    
    15    7   73 1    
    16    8    9 1    
    17    9   11 1    
    18    9   12 1    
    19    9   10 1    
    20   11   74 1    
    21   11   75 1    
    22   11   76 1    
    23   12   13 1    
    24   12   14 1    
    25   12   17 1    
    26   14   15 am   BACKBONE|DICT|INTERRES
    27   14   77 1    
    28   15   16 2    
    29   15   46 1    
    30   17   18 2    
    31   17   19 am   BACKBONE|DICT|INTERRES
    32   18  231 nc   
    33   19   20 1    
    34   19   78 1    
    35   20   21 1    
    36   20   79 1    
    37   20   80 1    
    38   21   22 1    
    39   21   81 1    
    40   21   82 1    
    41   22   23 1    
    42   22   83 1    
    43   22   84 1    
    44   23   24 1    
    45   23   85 1    
    46   23   86 1    
    47   24   25 1    
    48   24   87 1    
    49   24   88 1    
    50   25   26 1    
    51   25   89 1    
    52   25   90 1    
    53   26   27 2    
    54   26   28 am   BACKBONE|DICT|INTERRES
    55   27  231 nc   
    56   28   29 1    
    57   28   91 1    
    58   29   30 1    
    59   29   31 1    
    60   29   38 1    
    61   31   32 1    
    62   31   92 1    
    63   31   93 1    
    64   32   33 ar   
    65   32   37 ar   
    66   33   34 ar   
    67   33   94 1    
    68   34   35 ar   
    69   34   95 1    
    70   35   36 ar   
    71   35   96 1    
    72   36   37 ar   
    73   36   97 1    
    74   37   98 1    
    75   38   39 2    
    76   38   40 am   BACKBONE|DICT|INTERRES
    77   40   41 1    
    78   40   99 1    
    79   41   42 1    
    80   41   43 1    
    81   41   56 1    
    82   43   44 2    
    83   43   45 am   BACKBONE|DICT|INTERRES
    84   44  231 nc   
    85   45   46 1    
    86   45  100 1    
    87   46   47 1    
    88   46   48 1    
    89   48   49 1    
    90   48  101 1    
    91   48  102 1    
    92   49   50 1    
    93   49  103 1    
    94   49  104 1    
    95   50   51 1    
    96   50  105 1    
    97   50  106 1    
    98   51   52 1    
    99   51  107 1    
   100   51  108 1    
   101   52   53 1    
   102   52   54 1    
   103   52   55 1    
   104   56   57 1    
   105   56  109 1    
   106   56  110 1    
   107   57   58 ar   
   108   57   62 ar   
   109   58   59 ar   
   110   58  111 1    
   111   59   60 1    
   112   59   61 ar   
   113   61   62 ar   
   114   61   63 ar   
   115   62   66 ar   
   116   63   64 ar   
   117   63  112 1    
   118   64   65 ar   
   119   64  113 1    
   120   65   66 ar   
   121   65  114 1    
   122   66  115 1    
   123  116  117 1    
   124  117  119 ar   
   125  117  120 ar   
   126  118  119 1    
   127  119  122 ar   
   128  120  121 1    
   129  120  123 ar   
   130  122  126 1    
   131  122  125 ar   
   132  123  129 1    
   133  123  125 ar   
   134  124  127 1    
   135  125  136 1    
   136  127  131 1    
   137  127  134 1    
   138  127  133 1    
   139  128  133 1    
   140  130  131 1    
   141  131  139 1    
   142  131  132 1    
   143  133  135 1    
   144  133  140 1    
   145  136  137 1    
   146  136  142 1    
   147  136  143 1    
   148  138  144 2    
   149  138  231 nc   
   150  139  149 1    
   151  139  150 1    
   152  139  148 1    
   153  140  147 1    
   154  140  145 1    
   155  140  155 1    
   156  141  143 1    
   157  143  160 1    
   158  143  146 1    
   159  144  146 am   BACKBONE|DICT|INTERRES
   160  144  149 1    
   161  146  157 1    
   162  149  152 1    
   163  149  168 1    
   164  151  156 1    
   165  153  162 1    
   166  154  158 1    
   167  155  161 1    
   168  155  164 am   BACKBONE|DICT|INTERRES
   169  156  158 ar   
   170  156  166 ar   
   171  158  171 ar   
   172  159  167 1    
   173  160  165 2    
   174  160  170 am   BACKBONE|DICT|INTERRES
   175  162  175 ar   
   176  162  167 ar   
   177  163  164 2    
   178  163  231 nc   
   179  164  179 1    
   180  166  176 ar   
   181  166  172 1    
   182  167  180 ar   
   183  169  170 1    
   184  170  181 1    
   185  171  177 ar   
   186  171  174 1    
   187  173  178 1    
   188  175  187 ar   
   189  175  178 ar   
   190  176  186 1    
   191  176  177 ar   
   192  177  198 1    
   193  178  199 ar   
   194  179  182 1    
   195  179  183 1    
   196  179  196 1    
   197  180  187 ar   
   198  180  189 1    
   199  181  190 1    
   200  181  195 1    
   201  181  189 1    
   202  183  193 am   BACKBONE|DICT|INTERRES
   203  183  197 1    
   204  184  189 1    
   205  185  186 1    
   206  185  196 1    
   207  186  207 1    
   208  186  192 1    
   209  187  206 ar   
   210  188  191 1    
   211  189  204 1    
   212  191  201 1    
   213  191  195 am   BACKBONE|DICT|INTERRES
   214  193  194 2    
   215  193  201 1    
   216  195  203 2    
   217  196  209 1    
   218  196  200 1    
   219  199  208 ar   
   220  199  202 1    
   221  201  205 1    
   222  201  213 1    
   223  203  231 nc   
   224  206  210 1    
   225  206  208 ar   
   226  208  214 1    
   227  209  212 1    
   228  209  216 1    
   229  209  211 1    
   230  213  219 1    
   231  213  217 1    
   232  213  215 1    
   233  218  219 1    
   234  219  222 1    
   235  219  220 1    
   236  221  226 1    
   237  222  227 1    
   238  222  223 1    
   239  222  224 1    
   240  225  226 1    
   241  226  229 1    
   242  226  227 1    
   243  227  230 1    
   244  227  228 1    
@<TRIPOS>SUBSTRUCTURE
     1 UNK         1 GROUP             0       ****    0 ROOT    
