@<TRIPOS>MOLECULE
170_c1
98   103    1
SMALL
USER_CHARGES


@<TRIPOS>ATOM
      1 Fe1         0.0107   -0.6049    0.7523 Fe        1 UNK         0.0000 
      2 O2         -4.1053    4.7033    6.4404 O.3       1 UNK         0.0000 
      3 C3         -3.3350    3.6643    5.8500 C.3       1 UNK         0.0000 
      4 C4         -3.3806    3.6972    4.3016 C.3       1 UNK         0.0000 
      5 H5         -2.9864    4.6625    3.9666 H         1 UNK         0.0000 
      6 O6         -4.7201    3.6268    3.8362 O.3       1 UNK         0.0000 
      7 C7         -2.5757    2.5737    3.6441 C.2       1 UNK         0.0000 
      8 C8         -3.1230    1.1624    3.8992 C.3       1 UNK         0.0000 
      9 C9         -1.4606    2.8544    2.9083 C.2       1 UNK         0.0000 
     10 C10        -0.6465    1.8570    2.2433 C.2       1 UNK         0.0000 
     11 O11        -0.9680    0.6729    2.1873 O.co2     1 UNK         0.0000 
     12 N12         0.5242    2.1142    1.6184 N.am      1 UNK         0.0000 
     13 O13         1.2726    1.0785    1.2192 O.co2     1 UNK         0.0000 
     14 C14         1.0002    3.4337    1.1534 C.3       1 UNK         0.0000 
     15 C15         1.0545    3.5614   -0.3954 C.3       1 UNK         0.0000 
     16 C16         1.5938    4.9230   -0.8932 C.3       1 UNK         0.0000 
     17 C17         1.5737    5.1263   -2.4375 C.3       1 UNK         0.0000 
     18 H18         1.9883    6.1218   -2.6178 H         1 UNK         0.0000 
     19 N19         0.2063    5.1485   -3.0104 N.am      1 UNK         0.0000 
     20 C20        -0.2203    4.4832   -4.0895 C.2       1 UNK         0.0000 
     21 O21        -1.3708    4.6610   -4.4807 O.2       1 UNK         0.0000 
     22 C22         2.6333    4.2136   -3.1388 C.2       1 UNK         0.0000 
     23 O23         3.8173    4.1379   -2.8236 O.2       1 UNK         0.0000 
     24 N24         2.1837    3.4994   -4.1778 N.am      1 UNK         0.0000 
     25 C25         0.8145    3.5114   -4.7476 C.3       1 UNK         0.0000 
     26 H26         0.9001    3.9038   -5.7617 H         1 UNK         0.0000 
     27 C27         0.2031    2.0906   -4.8648 C.3       1 UNK         0.0000 
     28 C28        -0.0430    1.4440   -3.4888 C.3       1 UNK         0.0000 
     29 C29        -0.5027   -0.0328   -3.5179 C.3       1 UNK         0.0000 
     30 N30        -0.6694   -0.5668   -2.1590 N.am      1 UNK         0.0000 
     31 O31         0.3717   -0.3932   -1.3625 O.co2     1 UNK         0.0000 
     32 C32        -1.8178   -0.9968   -1.6001 C.2       1 UNK         0.0000 
     33 O33        -1.7925   -1.0224   -0.3683 O.co2     1 UNK         0.0000 
     34 C34        -2.9340   -1.4538   -2.3852 C.2       1 UNK         0.0000 
     35 C35        -2.9236   -2.5446   -3.1908 C.2       1 UNK         0.0000 
     36 C36        -4.1909   -2.9349   -3.9460 C.3       1 UNK         0.0000 
     37 C37        -1.7213   -3.4817   -3.3994 C.3       1 UNK         0.0000 
     38 C38        -1.9951   -4.9314   -2.9638 C.3       1 UNK         0.0000 
     39 O39        -0.7987   -5.6045   -2.5859 O.3       1 UNK         0.0000 
     40 C40        -0.8679   -6.8927   -2.1992 C.2       1 UNK         0.0000 
     41 O41        -1.8433   -7.6135   -2.4405 O.2       1 UNK         0.0000 
     42 C42         0.3511   -7.3618   -1.3748 C.3       1 UNK         0.0000 
     43 H43         0.9716   -7.9483   -2.0544 H         1 UNK         0.0000 
     44 N44        -0.2129   -8.2125   -0.3075 N.am      1 UNK         0.0000 
     45 C45         0.0768   -9.4960   -0.0684 C.2       1 UNK         0.0000 
     46 O46         0.9175  -10.1227   -0.7116 O.2       1 UNK         0.0000 
     47 C47        -0.6934  -10.1653    1.0620 C.3       1 UNK         0.0000 
     48 C48         1.2687   -6.2575   -0.7614 C.3       1 UNK         0.0000 
     49 C49         0.5380   -5.2020    0.1039 C.3       1 UNK         0.0000 
     50 C50         1.4340   -4.4061    1.0836 C.3       1 UNK         0.0000 
     51 N51         0.8531   -3.1014    1.4386 N.am      1 UNK         0.0000 
     52 O52         1.4102   -2.0197    0.8814 O.co2     1 UNK         0.0000 
     53 C53        -0.3629   -2.8979    1.9868 C.2       1 UNK         0.0000 
     54 O54        -0.6991   -1.7196    1.7958 O.co2     1 UNK         0.0000 
     55 C55        -1.2756   -3.9468    2.6060 C.3       1 UNK         0.0000 
     56 H56        -4.9663    4.3586    6.7061 H         1 UNK         0.0000 
     57 H57        -3.6820    2.7021    6.2248 H         1 UNK         0.0000 
     58 H58        -2.2992    3.7642    6.1795 H         1 UNK         0.0000 
     59 H59        -5.1919    4.3629    4.2332 H         1 UNK         0.0000 
     60 H60        -2.3683    0.5426    4.3847 H         1 UNK         0.0000 
     61 H61        -4.0122    1.1405    4.5340 H         1 UNK         0.0000 
     62 H62        -3.4087    0.6870    2.9596 H         1 UNK         0.0000 
     63 H63         2.0007    3.5858    1.5698 H         1 UNK         0.0000 
     64 H64         0.4292    4.2726    1.5463 H         1 UNK         0.0000 
     65 H65         1.6828    2.7672   -0.8036 H         1 UNK         0.0000 
     66 H66         0.0600    3.4044   -0.8107 H         1 UNK         0.0000 
     67 H67         1.0044    5.7222   -0.4328 H         1 UNK         0.0000 
     68 H68         2.6079    5.0750   -0.5124 H         1 UNK         0.0000 
     69 H69        -0.5114    5.7194   -2.5957 H         1 UNK         0.0000 
     70 H70         2.8861    2.8752   -4.5387 H         1 UNK         0.0000 
     71 H71        -0.7289    2.1158   -5.4362 H         1 UNK         0.0000 
     72 H72         0.8793    1.4552   -5.4422 H         1 UNK         0.0000 
     73 H73         0.8890    1.5073   -2.9250 H         1 UNK         0.0000 
     74 H74        -0.7807    2.0246   -2.9323 H         1 UNK         0.0000 
     75 H75        -1.4080   -0.1250   -4.1182 H         1 UNK         0.0000 
     76 H76         0.2427   -0.6508   -4.0275 H         1 UNK         0.0000 
     77 H77        -3.8141   -0.8442   -2.2657 H         1 UNK         0.0000 
     78 H78        -5.0054   -2.2328   -3.7565 H         1 UNK         0.0000 
     79 H79        -4.0261   -2.9620   -5.0239 H         1 UNK         0.0000 
     80 H80        -4.5451   -3.9170   -3.6293 H         1 UNK         0.0000 
     81 H81        -0.8479   -3.1312   -2.8468 H         1 UNK         0.0000 
     82 H82        -1.4193   -3.4535   -4.4477 H         1 UNK         0.0000 
     83 H83        -2.5263   -5.4759   -3.7476 H         1 UNK         0.0000 
     84 H84        -2.6554   -4.9037   -2.0941 H         1 UNK         0.0000 
     85 H85        -0.9175   -7.7777    0.2700 H         1 UNK         0.0000 
     86 H86        -1.2805  -10.9923    0.6625 H         1 UNK         0.0000 
     87 H87        -1.3757   -9.4791    1.5695 H         1 UNK         0.0000 
     88 H88         0.0024  -10.5640    1.8001 H         1 UNK         0.0000 
     89 H89         1.8363   -5.7634   -1.5496 H         1 UNK         0.0000 
     90 H90         2.0214   -6.7476   -0.1416 H         1 UNK         0.0000 
     91 H91        -0.2388   -5.7022    0.6870 H         1 UNK         0.0000 
     92 H92         0.0269   -4.4877   -0.5498 H         1 UNK         0.0000 
     93 H93         2.4047   -4.2385    0.6012 H         1 UNK         0.0000 
     94 H94         1.6574   -4.9702    1.9904 H         1 UNK         0.0000 
     95 H95        -0.7281   -4.6124    3.2705 H         1 UNK         0.0000 
     96 H96        -2.0784   -3.4751    3.1698 H         1 UNK         0.0000 
     97 H97        -1.7505   -4.5375    1.8217 H         1 UNK         0.0000 
     98 H98        -1.1437    3.8788    2.8035 H         1 UNK         0.0000 
@<TRIPOS>BOND
     1    1   11 nc   
     2    1   13 nc   
     3    1   31 nc   
     4    1   33 nc   
     5    1   52 nc   
     6    1   54 nc   
     7    2   56 1    
     8    2    3 1    
     9    3   58 1    
    10    3   57 1    
    11    3    4 1    
    12    4    5 1    
    13    4    6 1    
    14    4    7 1    
    15    6   59 1    
    16    7    9 2    
    17    7    8 1    
    18    8   60 1    
    19    8   61 1    
    20    8   62 1    
    21    9   10 1    
    22    9   98 1    
    23   10   11 2    
    24   10   12 am   BACKBONE|DICT|INTERRES
    25   12   13 1    
    26   12   14 1    
    27   14   64 1    
    28   14   63 1    
    29   14   15 1    
    30   15   16 1    
    31   15   65 1    
    32   15   66 1    
    33   16   68 1    
    34   16   67 1    
    35   16   17 1    
    36   17   18 1    
    37   17   19 1    
    38   17   22 1    
    39   19   69 1    
    40   19   20 am   BACKBONE|DICT|INTERRES
    41   20   21 2    
    42   20   25 1    
    43   22   23 2    
    44   22   24 am   BACKBONE|DICT|INTERRES
    45   24   25 1    
    46   24   70 1    
    47   25   26 1    
    48   25   27 1    
    49   27   28 1    
    50   27   71 1    
    51   27   72 1    
    52   28   74 1    
    53   28   73 1    
    54   28   29 1    
    55   29   30 1    
    56   29   75 1    
    57   29   76 1    
    58   30   32 am   BACKBONE|DICT|INTERRES
    59   30   31 1    
    60   32   34 1    
    61   32   33 2    
    62   34   77 1    
    63   34   35 2    
    64   35   36 1    
    65   35   37 1    
    66   36   78 1    
    67   36   80 1    
    68   36   79 1    
    69   37   38 1    
    70   37   81 1    
    71   37   82 1    
    72   38   39 1    
    73   38   84 1    
    74   38   83 1    
    75   39   40 1    
    76   40   42 1    
    77   40   41 2    
    78   42   43 1    
    79   42   48 1    
    80   42   44 1    
    81   44   45 am   BACKBONE|DICT|INTERRES
    82   44   85 1    
    83   45   47 1    
    84   45   46 2    
    85   47   87 1    
    86   47   88 1    
    87   47   86 1    
    88   48   90 1    
    89   48   49 1    
    90   48   89 1    
    91   49   91 1    
    92   49   50 1    
    93   49   92 1    
    94   50   51 1    
    95   50   94 1    
    96   50   93 1    
    97   51   53 am   BACKBONE|DICT|INTERRES
    98   51   52 1    
    99   53   55 1    
   100   53   54 2    
   101   55   96 1    
   102   55   95 1    
   103   55   97 1    
@<TRIPOS>SUBSTRUCTURE
     1 UNK         1 GROUP             0       ****    0 ROOT    
