@<TRIPOS>MOLECULE
047_c1
134   138    1
SMALL
USER_CHARGES


@<TRIPOS>ATOM
      1 O1         13.9960    5.1459   -3.1880 O.co2     1 UNK         0.0000 
      2 C2         13.1764    5.8719   -3.7658 C.2       1 UNK         0.0000 
      3 C3         12.3119    5.2960   -4.8836 C.3       1 UNK         0.0000 
      4 N4         13.0753    7.1644   -3.3544 N.am      1 UNK         0.0000 
      5 O5         13.8510    7.6877   -2.3965 O.co2     1 UNK         0.0000 
      6 C6         12.0551    8.1000   -3.8715 C.3       1 UNK         0.0000 
      7 C7         11.0309    8.5815   -2.8114 C.3       1 UNK         0.0000 
      8 C8         11.5416    9.5878   -1.7399 C.3       1 UNK         0.0000 
      9 C9         12.0494   10.9575   -2.2790 C.3       1 UNK         0.0000 
     10 H10        12.7601   10.7785   -3.0899 H         1 UNK         0.0000 
     11 C11        10.8504   11.7781   -2.8836 C.2       1 UNK         0.0000 
     12 O12        10.0951   12.3204   -2.0388 O.co2     1 UNK         0.0000 
     13 O13        10.6772   11.6232   -4.1117 O.co2     1 UNK         0.0000 
     14 N14        12.7715   11.6928   -1.2160 N.am      1 UNK         0.0000 
     15 C15        13.5301   12.7851   -1.4054 C.2       1 UNK         0.0000 
     16 O16        13.7592   13.3019   -2.4930 O.2       1 UNK         0.0000 
     17 C17        14.2113   13.3620   -0.1453 C.3       1 UNK         0.0000 
     18 H18        13.4566   13.4074    0.6364 H         1 UNK         0.0000 
     19 C19        14.7792   14.7939   -0.3079 C.3       1 UNK         0.0000 
     20 O20        13.7582   15.7761   -0.3123 O.3       1 UNK         0.0000 
     21 N21        15.2446   12.4520    0.3556 N.am      1 UNK         0.0000 
     22 C22        16.3838   12.1239   -0.2671 C.2       1 UNK         0.0000 
     23 O23        16.7883   12.6704   -1.2905 O.2       1 UNK         0.0000 
     24 C24        17.2391   11.0197    0.3863 C.3       1 UNK         0.0000 
     25 H25        17.5516   11.3724    1.3721 H         1 UNK         0.0000 
     26 C26        16.4798    9.6772    0.5034 C.3       1 UNK         0.0000 
     27 C27        15.2396    9.5500    1.4112 C.3       1 UNK         0.0000 
     28 C28        14.9247    8.0901    1.8243 C.3       1 UNK         0.0000 
     29 N29        14.6682    7.1338    0.7202 N.am      1 UNK         0.0000 
     30 O30        15.7208    6.9768   -0.0894 O.co2     1 UNK         0.0000 
     31 C31        13.5132    6.4328    0.5262 C.2       1 UNK         0.0000 
     32 O32        13.4424    5.7040   -0.4789 O.co2     1 UNK         0.0000 
     33 C33        12.3091    6.5029    1.4644 C.3       1 UNK         0.0000 
     34 N34        18.4384   10.8035   -0.4265 N.am      1 UNK         0.0000 
     35 C35        19.4873   10.0677   -0.0335 C.2       1 UNK         0.0000 
     36 O36        19.6660    9.7255    1.1344 O.2       1 UNK         0.0000 
     37 C37        20.4720    9.5898   -1.1104 C.3       1 UNK         0.0000 
     38 H38        20.3568   10.2769   -1.9547 H         1 UNK         0.0000 
     39 C39        20.2224    8.1431   -1.6051 C.3       1 UNK         0.0000 
     40 C40        18.7968    7.6855   -1.9220 C.3       1 UNK         0.0000 
     41 C41        18.7672    6.2024   -2.3713 C.3       1 UNK         0.0000 
     42 N42        17.4256    5.6117   -2.2901 N.am      1 UNK         0.0000 
     43 O43        16.5147    6.3390   -2.9426 O.co2     1 UNK         0.0000 
     44 C44        17.0888    4.5761   -1.4753 C.2       1 UNK         0.0000 
     45 O45        15.8799    4.4350   -1.2315 O.co2     1 UNK         0.0000 
     46 C46        18.1085    3.6476   -0.8133 C.3       1 UNK         0.0000 
     47 N47        21.8213    9.6027   -0.5587 N.am      1 UNK         0.0000 
     48 C48        22.9614    9.6731   -1.2660 C.2       1 UNK         0.0000 
     49 O49        24.0200    9.3072   -0.7816 O.2       1 UNK         0.0000 
     50 C50        22.9386   10.3300   -2.6455 C.3       1 UNK         0.0000 
     51 H51        12.5749    4.2592   -5.0626 H         1 UNK         0.0000 
     52 H52        11.2581    5.3381   -4.6203 H         1 UNK         0.0000 
     53 H53        12.4606    5.8444   -5.8106 H         1 UNK         0.0000 
     54 H54        12.5767    8.9535   -4.3142 H         1 UNK         0.0000 
     55 H55        11.4781    7.6896   -4.7010 H         1 UNK         0.0000 
     56 H56        10.6293    7.6970   -2.3221 H         1 UNK         0.0000 
     57 H57        10.1903    9.0414   -3.3389 H         1 UNK         0.0000 
     58 H58        12.3218    9.1148   -1.1420 H         1 UNK         0.0000 
     59 H59        10.7253    9.7574   -1.0335 H         1 UNK         0.0000 
     60 H60        12.5645   11.3816   -0.2831 H         1 UNK         0.0000 
     61 H61        15.3947   14.8980   -1.2054 H         1 UNK         0.0000 
     62 H62        15.4345   15.0237    0.5302 H         1 UNK         0.0000 
     63 H63        13.3703   15.7889   -1.2032 H         1 UNK         0.0000 
     64 H64        15.0025   11.9532    1.1967 H         1 UNK         0.0000 
     65 H65        17.1981    8.9259    0.8448 H         1 UNK         0.0000 
     66 H66        16.1772    9.3964   -0.5106 H         1 UNK         0.0000 
     67 H67        14.3625    9.9580    0.9132 H         1 UNK         0.0000 
     68 H68        15.3965   10.1282    2.3238 H         1 UNK         0.0000 
     69 H69        15.7907    7.6860    2.3618 H         1 UNK         0.0000 
     70 H70        14.1348    8.1457    2.5618 H         1 UNK         0.0000 
     71 H71        12.4367    7.0840    2.3716 H         1 UNK         0.0000 
     72 H72        12.0761    5.4886    1.7797 H         1 UNK         0.0000 
     73 H73        11.4433    6.9044    0.9385 H         1 UNK         0.0000 
     74 H74        18.3597   11.1585   -1.3740 H         1 UNK         0.0000 
     75 H75        20.8496    7.9795   -2.4840 H         1 UNK         0.0000 
     76 H76        20.6015    7.4687   -0.8321 H         1 UNK         0.0000 
     77 H77        18.3413    8.3109   -2.6928 H         1 UNK         0.0000 
     78 H78        18.1847    7.7839   -1.0247 H         1 UNK         0.0000 
     79 H79        19.1426    6.1080   -3.3952 H         1 UNK         0.0000 
     80 H80        19.4860    5.6610   -1.7583 H         1 UNK         0.0000 
     81 H81        17.7612    2.6181   -0.8784 H         1 UNK         0.0000 
     82 H82        18.2087    3.9052    0.2396 H         1 UNK         0.0000 
     83 H83        19.0919    3.6719   -1.2799 H         1 UNK         0.0000 
     84 H84        21.8687    9.3316    0.4153 H         1 UNK         0.0000 
     85 Fe85       14.9288    6.1192   -1.7364 Fe        1 UNK         0.0000 
     86 H86        22.1577    9.8850   -3.2643 H         1 UNK         0.0000 
     87 H87        23.8806   10.1398   -3.1660 H         1 UNK         0.0000 
     88 C88        22.7579   11.8437   -2.4434 C.3       1 UNK         0.0000 
     89 H89        22.0218   12.0459   -1.6595 H         1 UNK         0.0000 
     90 C90        22.2945   12.6138   -3.6702 C.3       1 UNK         0.0000 
     91 H91        23.7004   12.2609   -2.0822 H         1 UNK         0.0000 
     92 H92        21.3343   12.2146   -4.0049 H         1 UNK         0.0000 
     93 H93        22.9940   12.4957   -4.4998 H         1 UNK         0.0000 
     94 C94        22.1553   14.0948   -3.2907 C.3       1 UNK         0.0000 
     95 H95        21.5197   14.1871   -2.4066 H         1 UNK         0.0000 
     96 C96        21.5363   14.9095   -4.4088 C.3       1 UNK         0.0000 
     97 H97        23.1294   14.5084   -3.0239 H         1 UNK         0.0000 
     98 H98        20.5910   14.4355   -4.6866 H         1 UNK         0.0000 
     99 H99        22.1734   14.8654   -5.2951 H         1 UNK         0.0000 
    100 C100       21.2801   16.3718   -4.0154 C.3       1 UNK         0.0000 
    101 H101       20.6976   16.4307   -3.0938 H         1 UNK         0.0000 
    102 C102       20.5217   17.0157   -5.1630 C.3       1 UNK         0.0000 
    103 H103       22.2214   16.8957   -3.8353 H         1 UNK         0.0000 
    104 H104       19.6627   16.3857   -5.3976 H         1 UNK         0.0000 
    105 H105       21.1808   17.0292   -6.0291 H         1 UNK         0.0000 
    106 C106       20.0036   18.4170   -4.9539 C.2       1 UNK         0.0000 
    107 C107       19.1464   18.9910   -5.8148 C.2       1 UNK         0.0000 
    108 H108       20.3437   18.9635   -4.0842 H         1 UNK         0.0000 
    109 C109       18.6103   18.3165   -7.0741 C.3       1 UNK         0.0000 
    110 H110       18.8057   20.0011   -5.6331 H         1 UNK         0.0000 
    111 H111       18.2955   17.3006   -6.8281 H         1 UNK         0.0000 
    112 C112       19.6221   18.2670   -8.2400 C.3       1 UNK         0.0000 
    113 H113       17.6922   18.8126   -7.3914 H         1 UNK         0.0000 
    114 H114       20.5047   17.6838   -7.9741 H         1 UNK         0.0000 
    115 C115       20.0493   19.6776   -8.6568 C.3       1 UNK         0.0000 
    116 H116       19.1704   17.7443   -9.0869 H         1 UNK         0.0000 
    117 H117       20.4614   20.2037   -7.7925 H         1 UNK         0.0000 
    118 H118       19.1511   20.2246   -8.9489 H         1 UNK         0.0000 
    119 C119       21.0845   19.7475   -9.7869 C.3       1 UNK         0.0000 
    120 H120       22.0388   19.3344   -9.4509 H         1 UNK         0.0000 
    121 C121       21.2535   21.2146  -10.2043 C.3       1 UNK         0.0000 
    122 H122       20.7607   19.1457  -10.6373 H         1 UNK         0.0000 
    123 H123       21.6078   21.7943   -9.3491 H         1 UNK         0.0000 
    124 H124       20.2692   21.6148  -10.4574 H         1 UNK         0.0000 
    125 C125       22.1898   21.4477  -11.3930 C.3       1 UNK         0.0000 
    126 H126       23.2115   21.1622  -11.1327 H         1 UNK         0.0000 
    127 C127       22.1511   22.9240  -11.8149 C.3       1 UNK         0.0000 
    128 H128       21.8879   20.8224  -12.2362 H         1 UNK         0.0000 
    129 H129       22.4669   23.5592  -10.9842 H         1 UNK         0.0000 
    130 H130       21.1251   23.2144  -12.0524 H         1 UNK         0.0000 
    131 C131       23.0286   23.2223  -13.0273 C.3       1 UNK         0.0000 
    132 H132       24.0755   23.0007  -12.8244 H         1 UNK         0.0000 
    133 H133       22.9550   24.2767  -13.2942 H         1 UNK         0.0000 
    134 H134       22.7201   22.6379  -13.8934 H         1 UNK         0.0000 
@<TRIPOS>BOND
     1    1    2 2    
     2    1   85 nc   
     3    2    3 1    
     4    2    4 am   BACKBONE|DICT|INTERRES
     5    3   51 1    
     6    3   52 1    
     7    3   53 1    
     8    4    5 1    
     9    4    6 1    
    10    5   85 nc   
    11    6    7 1    
    12    6   54 1    
    13    6   55 1    
    14    7    8 1    
    15    7   56 1    
    16    7   57 1    
    17    8    9 1    
    18    8   58 1    
    19    8   59 1    
    20    9   10 1    
    21    9   11 1    
    22    9   14 1    
    23   11   12 1    
    24   11   13 2    
    25   14   15 am   BACKBONE|DICT|INTERRES
    26   14   60 1    
    27   15   16 2    
    28   15   17 1    
    29   17   19 1    
    30   17   21 1    
    31   17   18 1    
    32   19   20 1    
    33   19   61 1    
    34   19   62 1    
    35   20   63 1    
    36   21   22 am   BACKBONE|DICT|INTERRES
    37   21   64 1    
    38   22   23 2    
    39   22   24 1    
    40   24   25 1    
    41   24   26 1    
    42   24   34 1    
    43   26   27 1    
    44   26   65 1    
    45   26   66 1    
    46   27   28 1    
    47   27   67 1    
    48   27   68 1    
    49   28   29 1    
    50   28   69 1    
    51   28   70 1    
    52   29   30 1    
    53   29   31 am   BACKBONE|DICT|INTERRES
    54   30   85 nc   
    55   31   32 2    
    56   31   33 1    
    57   32   85 nc   
    58   33   71 1    
    59   33   72 1    
    60   33   73 1    
    61   34   35 am   BACKBONE|DICT|INTERRES
    62   34   74 1    
    63   35   36 2    
    64   35   37 1    
    65   37   39 1    
    66   37   47 1    
    67   37   38 1    
    68   39   40 1    
    69   39   75 1    
    70   39   76 1    
    71   40   41 1    
    72   40   77 1    
    73   40   78 1    
    74   41   42 1    
    75   41   79 1    
    76   41   80 1    
    77   42   43 1    
    78   42   44 am   BACKBONE|DICT|INTERRES
    79   43   85 nc   
    80   44   45 2    
    81   44   46 1    
    82   45   85 nc   
    83   46   81 1    
    84   46   82 1    
    85   46   83 1    
    86   47   48 am   BACKBONE|DICT|INTERRES
    87   47   84 1    
    88   48   49 2    
    89   48   50 1    
    90   50   86 1    
    91   50   87 1    
    92   50   88 1    
    93   88   89 1    
    94   88   90 1    
    95   88   91 1    
    96   90   92 1    
    97   90   93 1    
    98   90   94 1    
    99   94   95 1    
   100   94   96 1    
   101   94   97 1    
   102   96   98 1    
   103   96   99 1    
   104   96  100 1    
   105  100  101 1    
   106  100  102 1    
   107  100  103 1    
   108  102  104 1    
   109  102  105 1    
   110  102  106 1    
   111  106  107 2    
   112  106  108 1    
   113  107  109 1    
   114  107  110 1    
   115  109  111 1    
   116  109  112 1    
   117  109  113 1    
   118  112  114 1    
   119  112  115 1    
   120  112  116 1    
   121  115  117 1    
   122  115  118 1    
   123  115  119 1    
   124  119  120 1    
   125  119  121 1    
   126  119  122 1    
   127  121  123 1    
   128  121  124 1    
   129  121  125 1    
   130  125  126 1    
   131  125  127 1    
   132  125  128 1    
   133  127  129 1    
   134  127  130 1    
   135  127  131 1    
   136  131  132 1    
   137  131  133 1    
   138  131  134 1    
@<TRIPOS>SUBSTRUCTURE
     1 UNK         1 GROUP             0       ****    0 ROOT    
