@<TRIPOS>MOLECULE
009_c1
46   51    1
SMALL
USER_CHARGES


@<TRIPOS>ATOM
      1 Fe1         0.0000    0.0000    0.0000 Fe        1 UNK         0.0000 
      2 O2          0.0000    2.0800    0.0000 O.co2     1 UNK         0.0000 
      3 C3          1.1861    2.7042   -0.0072 C.ar      1 UNK         0.0000 
      4 C4          1.6309    3.4035   -1.1616 C.ar      1 UNK         0.0000 
      5 C5          2.1359    2.1376    0.7790 C.ar      1 UNK         0.0000 
      6 C6          2.6786    1.1985   -0.0359 C.ar      1 UNK         0.0000 
      7 O7          2.0800   -0.0000    0.0000 O.co2     1 UNK         0.0000 
      8 C8          3.3448    1.6595   -1.2053 C.ar      1 UNK         0.0000 
      9 C9          2.8540    2.9037   -1.7375 C.ar      1 UNK         0.0000 
     10 C10         3.3440    3.4306   -3.0334 C.2       1 UNK         0.0000 
     11 O11         2.7601    4.5040   -3.5987 O.2       1 UNK         0.0000 
     12 O12         4.2928    2.9033   -3.5935 O.3       1 UNK         0.0000 
     13 O13         0.0000   -2.0800    0.0000 O.co2     1 UNK         0.0000 
     14 C14        -0.0079   -2.7051    1.1855 C.ar      1 UNK         0.0000 
     15 C15        -1.1626   -3.4011    1.6309 C.ar      1 UNK         0.0000 
     16 C16         0.7800   -2.1394    2.1352 C.ar      1 UNK         0.0000 
     17 C17        -0.0340   -1.1989    2.6795 C.ar      1 UNK         0.0000 
     18 O18         0.0000    0.0000    2.0800 O.co2     1 UNK         0.0000 
     19 C19        -1.2020   -1.6589    3.3466 C.ar      1 UNK         0.0000 
     20 C20        -1.7362   -2.9037    2.8533 C.ar      1 UNK         0.0000 
     21 C21        -3.0314   -3.4271    3.3435 C.2       1 UNK         0.0000 
     22 O22        -3.5989   -4.5002    2.7586 O.2       1 UNK         0.0000 
     23 O23        -3.5924   -2.9022    4.2927 O.3       1 UNK         0.0000 
     24 O24        -2.0800    0.0000    0.0000 O.co2     1 UNK         0.0000 
     25 C25        -2.7059   -0.0142   -1.1862 C.ar      1 UNK         0.0000 
     26 C26        -3.3998   -1.1714   -1.6284 C.ar      1 UNK         0.0000 
     27 C27        -2.1465    0.7708   -2.1420 C.ar      1 UNK         0.0000 
     28 C28        -1.2000   -0.0399   -2.6801 C.ar      1 UNK         0.0000 
     29 O29         0.0000    0.0000   -2.0800 O.co2     1 UNK         0.0000 
     30 C30        -1.6567   -1.2100   -3.3459 C.ar      1 UNK         0.0000 
     31 C31        -2.9013   -1.7457   -2.8517 C.ar      1 UNK         0.0000 
     32 C32        -3.4241   -3.0409   -3.3419 C.2       1 UNK         0.0000 
     33 O33        -4.4985   -3.6063   -2.7573 O.3       1 UNK         0.0000 
     34 O34        -2.8986   -3.6021   -4.2903 O.2       1 UNK         0.0000 
     35 H35         4.4777    3.3656   -4.4143 H         1 UNK         0.0000 
     36 H36        -4.4136   -3.3647    4.4754 H         1 UNK         0.0000 
     37 H37        -4.7021   -4.4360   -3.1952 H         1 UNK         0.0000 
     38 H38         2.2786    2.4875    1.7907 H         1 UNK         0.0000 
     39 H39         4.1551    1.0837   -1.6276 H         1 UNK         0.0000 
     40 H40         1.0609    4.2392   -1.5397 H         1 UNK         0.0000 
     41 H41        -2.5053    1.7785   -2.2913 H         1 UNK         0.0000 
     42 H42        -4.2321   -1.5536   -1.0561 H         1 UNK         0.0000 
     43 H43        -1.0798   -1.6300   -4.1565 H         1 UNK         0.0000 
     44 H44         1.7915   -2.4903    2.2769 H         1 UNK         0.0000 
     45 H45        -1.5439   -4.2352    1.0605 H         1 UNK         0.0000 
     46 H46        -1.6222   -1.0836    4.1583 H         1 UNK         0.0000 
@<TRIPOS>BOND
     1    1    2 nc   
     2    1    7 nc   
     3    1   13 nc   
     4    1   18 nc   
     5    1   24 nc   
     6    1   29 nc   
     7    2    3 1    
     8    3    5 ar   
     9    3    4 ar   
    10    4    9 ar   
    11    4   40 1    
    12    5    6 ar   
    13    5   38 1    
    14    6    7 1    
    15    6    8 ar   
    16    8    9 ar   
    17    8   39 1    
    18    9   10 1    
    19   10   11 2    
    20   10   12 1    
    21   12   35 1    
    22   13   14 1    
    23   14   15 ar   
    24   14   16 ar   
    25   15   20 ar   
    26   15   45 1    
    27   16   17 ar   
    28   16   44 1    
    29   17   18 1    
    30   17   19 ar   
    31   19   20 ar   
    32   19   46 1    
    33   20   21 1    
    34   21   23 1    
    35   21   22 2    
    36   23   36 1    
    37   24   25 1    
    38   25   26 ar   
    39   25   27 ar   
    40   26   31 ar   
    41   26   42 1    
    42   27   28 ar   
    43   27   41 1    
    44   28   29 1    
    45   28   30 ar   
    46   30   31 ar   
    47   30   43 1    
    48   31   32 1    
    49   32   33 1    
    50   32   34 2    
    51   33   37 1    
@<TRIPOS>SUBSTRUCTURE
     1 UNK         1 GROUP             0       ****    0 ROOT    
