@<TRIPOS>MOLECULE
001_c1
46   51    1
SMALL
USER_CHARGES


@<TRIPOS>ATOM
      1 Fe1         0.0000    0.0000    0.0000 Fe        1 UNK         0.0000 
      2 O2          0.0000    2.0800    0.0000 O.co2     1 UNK         0.0000 
      3 C3          1.0680    2.9057    0.0483 C.2       1 UNK         0.0000 
      4 O4          0.8393    4.1057    0.0731 O.co2     1 UNK         0.0000 
      5 C5          2.5059    2.4258    0.0742 C.ar      1 UNK         0.0000 
      6 C6          2.9464    1.0567    0.0503 C.ar      1 UNK         0.0000 
      7 O7          2.0800    0.0138    0.0000 O.co2     1 UNK         0.0000 
      8 C8          4.3309    0.7665    0.0794 C.ar      1 UNK         0.0000 
      9 O9          4.7526   -0.5166    0.0570 O.3       1 UNK         0.0000 
     10 C10         5.2711    1.7981    0.1312 C.ar      1 UNK         0.0000 
     11 C11         4.8561    3.1212    0.1547 C.ar      1 UNK         0.0000 
     12 C12         3.4995    3.4314    0.1267 C.ar      1 UNK         0.0000 
     13 H13         5.6900   -0.7569    0.0753 H         1 UNK         0.0000 
     14 H14         6.3301    1.5727    0.1533 H         1 UNK         0.0000 
     15 H15         5.5912    3.9149    0.1949 H         1 UNK         0.0000 
     16 H16         3.2323    4.4805    0.1469 H         1 UNK         0.0000 
     17 O17         0.0000   -2.0800    0.0000 O.co2     1 UNK         0.0000 
     18 C18         0.0556   -2.8984    1.0739 C.2       1 UNK         0.0000 
     19 O19         0.0841   -4.0998    0.8521 O.co2     1 UNK         0.0000 
     20 C20         0.0847   -2.4117    2.5109 C.ar      1 UNK         0.0000 
     21 C21         0.0574   -1.0411    2.9481 C.ar      1 UNK         0.0000 
     22 O22         0.0000    0.0000    2.0800 O.co2     1 UNK         0.0000 
     23 C23         0.0905   -0.7467    4.3321 C.ar      1 UNK         0.0000 
     24 O24         0.0649    0.5373    4.7505 O.3       1 UNK         0.0000 
     25 C25         0.1494   -1.7754    5.2748 C.ar      1 UNK         0.0000 
     26 C26         0.1759   -3.0994    4.8637 C.ar      1 UNK         0.0000 
     27 C27         0.1443   -3.4136    3.5079 C.ar      1 UNK         0.0000 
     28 H28         0.0853    0.7805    5.6871 H         1 UNK         0.0000 
     29 H29         0.1743   -1.5467    6.3332 H         1 UNK         0.0000 
     30 H30         0.2214   -3.8908    5.6010 H         1 UNK         0.0000 
     31 H31         0.1671   -4.4636    3.2445 H         1 UNK         0.0000 
     32 O32        -2.0800    0.0000    0.0000 O.co2     1 UNK         0.0000 
     33 C33        -2.8986    0.0547   -1.0740 C.2       1 UNK         0.0000 
     34 O34        -4.0998    0.0825   -0.8522 O.co2     1 UNK         0.0000 
     35 C35        -2.4116    0.0835   -2.5109 C.ar      1 UNK         0.0000 
     36 C36        -1.0409    0.0565   -2.9483 C.ar      1 UNK         0.0000 
     37 O37         0.0000    0.0000   -2.0800 O.co2     1 UNK         0.0000 
     38 C38        -0.7468    0.0891   -4.3323 C.ar      1 UNK         0.0000 
     39 O39         0.5376    0.0638   -4.7505 O.3       1 UNK         0.0000 
     40 C40        -1.7752    0.1473   -5.2751 C.ar      1 UNK         0.0000 
     41 C41        -3.0994    0.1740   -4.8638 C.ar      1 UNK         0.0000 
     42 C42        -3.4136    0.1427   -3.5081 C.ar      1 UNK         0.0000 
     43 H43         0.7806    0.0843   -5.6872 H         1 UNK         0.0000 
     44 H44        -1.5467    0.1721   -6.3334 H         1 UNK         0.0000 
     45 H45        -3.8907    0.2192   -5.6011 H         1 UNK         0.0000 
     46 H46        -4.4635    0.1657   -3.2446 H         1 UNK         0.0000 
@<TRIPOS>BOND
     1    1    2 nc   
     2    1    7 nc   
     3    1   17 nc   
     4    1   22 nc   
     5    1   32 nc   
     6    1   37 nc   
     7    2    3 1    
     8    3    4 2    
     9    3    5 1    
    10    5   12 ar   
    11    5    6 ar   
    12    6    8 ar   
    13    6    7 1    
    14    8   10 ar   
    15    8    9 1    
    16    9   13 1    
    17   10   14 1    
    18   10   11 ar   
    19   11   15 1    
    20   11   12 ar   
    21   12   16 1    
    22   17   18 1    
    23   18   20 1    
    24   18   19 2    
    25   20   21 ar   
    26   20   27 ar   
    27   21   23 ar   
    28   21   22 1    
    29   23   24 1    
    30   23   25 ar   
    31   24   28 1    
    32   25   29 1    
    33   25   26 ar   
    34   26   30 1    
    35   26   27 ar   
    36   27   31 1    
    37   32   33 1    
    38   33   34 2    
    39   33   35 1    
    40   35   36 ar   
    41   35   42 ar   
    42   36   37 1    
    43   36   38 ar   
    44   38   39 1    
    45   38   40 ar   
    46   39   43 1    
    47   40   41 ar   
    48   40   44 1    
    49   41   42 ar   
    50   41   45 1    
    51   42   46 1    
@<TRIPOS>SUBSTRUCTURE
     1 UNK         1 GROUP             0       ****    0 ROOT    
