@<TRIPOS>MOLECULE
234_c1
53   58    1
SMALL
USER_CHARGES


@<TRIPOS>ATOM
      1 Fe1         0.0245    0.5165    1.1325 Fe        1 UNK         0.0000 
      2 O2          0.3340   -0.6627    2.4566 O.co2     1 UNK         0.0000 
      3 C3          0.1428   -1.8465    2.1631 C.2       1 UNK         0.0000 
      4 C4          1.2902   -2.8487    2.2897 C.3       1 UNK         0.0000 
      5 N5         -0.9142   -1.9829    1.3373 N.am      1 UNK         0.0000 
      6 O6         -1.6657   -0.9125    1.0633 O.co2     1 UNK         0.0000 
      7 C7         -1.2167   -3.1667    0.5118 C.3       1 UNK         0.0000 
      8 C8         -0.4149   -3.2584   -0.8177 C.3       1 UNK         0.0000 
      9 C9         -0.5997   -2.1028   -1.8542 C.3       1 UNK         0.0000 
     10 N10         0.6076   -1.2895   -2.1695 N.am      1 UNK         0.0000 
     11 C11         0.7619   -0.6389   -3.3511 C.2       1 UNK         0.0000 
     12 O12         0.0962   -0.7911   -4.3655 O.2       1 UNK         0.0000 
     13 C13         1.4481   -0.7894   -1.2603 C.2       1 UNK         0.0000 
     14 O14         1.1657   -0.5536   -0.0791 O.co2     1 UNK         0.0000 
     15 C15         2.5947   -0.1210   -1.9621 C.3       1 UNK         0.0000 
     16 C16         1.8554    0.4412   -3.1282 C.3       1 UNK         0.0000 
     17 O17         2.7098    0.5596   -4.2533 O.3       1 UNK         0.0000 
     18 C18         1.1974    1.8795   -2.9660 C.3       1 UNK         0.0000 
     19 C19         0.3548    2.3232   -1.7157 C.2       1 UNK         0.0000 
     20 O20         0.3531    1.6910   -0.6265 O.co2     1 UNK         0.0000 
     21 N21        -0.3212    3.4715   -1.8609 N.am      1 UNK         0.0000 
     22 C22        -1.2273    4.0881   -0.8597 C.3       1 UNK         0.0000 
     23 C23        -0.5330    4.8343    0.3103 C.3       1 UNK         0.0000 
     24 C24        -0.8251    4.2899    1.7407 C.3       1 UNK         0.0000 
     25 N25        -0.3060    2.9273    1.9550 N.am      1 UNK         0.0000 
     26 O26        -1.1147    1.9445    1.5463 O.co2     1 UNK         0.0000 
     27 C27         0.9923    2.6549    2.2417 C.2       1 UNK         0.0000 
     28 O28         1.2869    1.4826    2.0150 O.co2     1 UNK         0.0000 
     29 C29         2.0645    3.6518    2.6179 C.3       1 UNK         0.0000 
     30 H30         1.6156   -2.9622    3.3215 H         1 UNK         0.0000 
     31 H31         1.1144   -3.8276    1.8582 H         1 UNK         0.0000 
     32 H32         2.1522   -2.4424    1.7609 H         1 UNK         0.0000 
     33 H33        -2.2799   -3.1205    0.2580 H         1 UNK         0.0000 
     34 H34        -1.1053   -4.0852    1.0906 H         1 UNK         0.0000 
     35 H35        -0.7369   -4.1710   -1.3159 H         1 UNK         0.0000 
     36 H36         0.6412   -3.4285   -0.5906 H         1 UNK         0.0000 
     37 H37        -0.9183   -2.5591   -2.8005 H         1 UNK         0.0000 
     38 H38        -1.4242   -1.4456   -1.5655 H         1 UNK         0.0000 
     39 H39         3.3823   -0.8453   -2.2066 H         1 UNK         0.0000 
     40 H40         3.0384    0.6537   -1.3359 H         1 UNK         0.0000 
     41 H41         3.4850    1.0904   -4.0512 H         1 UNK         0.0000 
     42 H42         0.5664    2.0709   -3.8365 H         1 UNK         0.0000 
     43 H43         1.9847    2.6293   -3.0602 H         1 UNK         0.0000 
     44 H44        -0.3011    3.9364   -2.7581 H         1 UNK         0.0000 
     45 H45        -1.9792    3.3855   -0.5060 H         1 UNK         0.0000 
     46 H46        -1.7958    4.8203   -1.4380 H         1 UNK         0.0000 
     47 H47         0.5476    4.8952    0.1633 H         1 UNK         0.0000 
     48 H48        -0.8577    5.8745    0.2766 H         1 UNK         0.0000 
     49 H49        -0.4474    4.9914    2.4921 H         1 UNK         0.0000 
     50 H50        -1.9140    4.2898    1.8994 H         1 UNK         0.0000 
     51 H51         2.4541    3.3524    3.5872 H         1 UNK         0.0000 
     52 H52         2.8705    3.5515    1.8913 H         1 UNK         0.0000 
     53 H53         1.7515    4.6891    2.6532 H         1 UNK         0.0000 
@<TRIPOS>BOND
     1    1    2 nc   
     2    1    6 nc   
     3    1   14 nc   
     4    1   20 nc   
     5    1   26 nc   
     6    1   28 nc   
     7    2    3 2    
     8    3    4 1    
     9    3    5 am   BACKBONE|DICT|INTERRES
    10    4   30 1    
    11    4   31 1    
    12    4   32 1    
    13    5    6 1    
    14    5    7 1    
    15    7   34 1    
    16    7    8 1    
    17    7   33 1    
    18    8   36 1    
    19    8    9 1    
    20    8   35 1    
    21    9   38 1    
    22    9   10 1    
    23    9   37 1    
    24   10   13 am   BACKBONE|DICT|INTERRES
    25   10   11 am   BACKBONE|DICT|INTERRES
    26   11   16 1    
    27   11   12 2    
    28   13   14 2    
    29   13   15 1    
    30   15   40 1    
    31   15   16 1    
    32   15   39 1    
    33   16   17 1    
    34   16   18 1    
    35   17   41 1    
    36   18   19 1    
    37   18   42 1    
    38   18   43 1    
    39   19   20 2    
    40   19   21 am   BACKBONE|DICT|INTERRES
    41   21   22 1    
    42   21   44 1    
    43   22   45 1    
    44   22   23 1    
    45   22   46 1    
    46   23   24 1    
    47   23   47 1    
    48   23   48 1    
    49   24   50 1    
    50   24   25 1    
    51   24   49 1    
    52   25   27 am   BACKBONE|DICT|INTERRES
    53   25   26 1    
    54   27   29 1    
    55   27   28 2    
    56   29   53 1    
    57   29   51 1    
    58   29   52 1    
@<TRIPOS>SUBSTRUCTURE
     1 UNK         1 GROUP             0       ****    0 ROOT    
