@<TRIPOS>MOLECULE
169_c1
109   114    1
SMALL
USER_CHARGES


@<TRIPOS>ATOM
      1 O1         13.9272   38.4162    8.8811 O.3       1 UNK         0.0000 
      2 C2         13.0934   39.4850    9.2838 C.3       1 UNK         0.0000 
      3 C3         13.6502   40.0998   10.5664 C.3       1 UNK         0.0000 
      4 C4         12.8158   41.2672   11.1115 C.2       1 UNK         0.0000 
      5 C5         11.3586   40.9717   11.4240 C.3       1 UNK         0.0000 
      6 C6         13.2425   42.5280   11.3538 C.2       1 UNK         0.0000 
      7 C7         14.5427   43.1239   11.1652 C.2       1 UNK         0.0000 
      8 O8         14.6056   44.2847   10.7488 O.co2     1 UNK         0.0000 
      9 N9         15.7241   42.4997   11.4815 N.am      1 UNK         0.0000 
     10 O10        16.9111   43.0652   11.2284 O.co2     1 UNK         0.0000 
     11 C11        15.8618   41.3598   12.4147 C.3       1 UNK         0.0000 
     12 C12        16.4878   41.8002   13.7397 C.3       1 UNK         0.0000 
     13 C13        16.6011   40.7285   14.8344 C.3       1 UNK         0.0000 
     14 C14        17.1012   41.3367   16.1752 C.3       1 UNK         0.0000 
     15 H15        17.1443   40.5319   16.9098 H         1 UNK         0.0000 
     16 C16        16.0025   42.2892   16.7592 C.2       1 UNK         0.0000 
     17 O17        14.9596   41.9309   17.2903 O.2       1 UNK         0.0000 
     18 N18        16.2890   43.6001   16.6821 N.am      1 UNK         0.0000 
     19 C19        17.4698   44.1236   15.9653 C.3       1 UNK         0.0000 
     20 H20        17.2706   44.0430   14.9041 H         1 UNK         0.0000 
     21 C21        18.7390   43.2309   16.1521 C.2       1 UNK         0.0000 
     22 O22        19.8938   43.6104   16.3218 O.2       1 UNK         0.0000 
     23 N23        18.4730   41.9121   16.1318 N.am      1 UNK         0.0000 
     24 C24        17.7383   45.6286   16.2501 C.3       1 UNK         0.0000 
     25 C25        16.6178   46.5756   15.7286 C.3       1 UNK         0.0000 
     26 C26        16.8651   47.2112   14.3391 C.3       1 UNK         0.0000 
     27 N27        17.1429   46.2556   13.2364 N.am      1 UNK         0.0000 
     28 O28        16.1621   45.3562   13.0291 O.co2     1 UNK         0.0000 
     29 C29        18.2148   46.3754   12.4060 C.2       1 UNK         0.0000 
     30 O30        18.2995   45.6065   11.4376 O.co2     1 UNK         0.0000 
     31 C31        18.9997   47.5791   12.4179 C.2       1 UNK         0.0000 
     32 C32        20.3171   47.6750   12.6953 C.2       1 UNK         0.0000 
     33 C33        21.1653   46.5359   13.2660 C.3       1 UNK         0.0000 
     34 C34        21.0030   49.0031   12.3925 C.3       1 UNK         0.0000 
     35 C35        21.1295   49.2039   10.8643 C.3       1 UNK         0.0000 
     36 O36        21.3092   50.5655   10.4617 O.3       1 UNK         0.0000 
     37 C37        20.5030   51.2291    9.5641 C.2       1 UNK         0.0000 
     38 O38        20.9644   52.1209    8.8450 O.2       1 UNK         0.0000 
     39 C39        19.0187   50.8338    9.5055 C.3       1 UNK         0.0000 
     40 H40        18.7992   50.2563   10.4011 H         1 UNK         0.0000 
     41 N41        18.2235   52.0822    9.5288 N.am      1 UNK         0.0000 
     42 C42        17.2994   52.3876   10.4492 C.2       1 UNK         0.0000 
     43 O43        17.0529   51.6585   11.4001 O.2       1 UNK         0.0000 
     44 C44        16.5360   53.7044   10.2846 C.3       1 UNK         0.0000 
     45 C45        18.6909   50.0097    8.2142 C.3       1 UNK         0.0000 
     46 C46        17.3797   49.1959    8.2818 C.3       1 UNK         0.0000 
     47 C47        17.4383   48.2083    9.4587 C.3       1 UNK         0.0000 
     48 N48        16.6396   46.9835    9.3692 N.am      1 UNK         0.0000 
     49 O49        15.8528   46.8393   10.4379 O.co2     1 UNK         0.0000 
     50 C50        17.0309   45.9253    8.6171 C.2       1 UNK         0.0000 
     51 O51        16.8185   44.8054    9.0769 O.co2     1 UNK         0.0000 
     52 C52        17.7488   46.1218    7.3849 C.2       1 UNK         0.0000 
     53 C53        17.5767   45.3926    6.2549 C.2       1 UNK         0.0000 
     54 C54        18.4409   45.7312    5.0500 C.3       1 UNK         0.0000 
     55 C55        16.5901   44.2212    6.0293 C.3       1 UNK         0.0000 
     56 H56        16.5024   44.0694    4.9574 H         1 UNK         0.0000 
     57 O57        15.2821   44.5843    6.4417 O.3       1 UNK         0.0000 
     58 C58        17.0061   42.8536    6.6494 C.3       1 UNK         0.0000 
     59 O59        18.2506   42.4043    6.1269 O.3       1 UNK         0.0000 
     60 H60        13.5463   37.9796    8.1145 H         1 UNK         0.0000 
     61 H61        12.0832   39.1082    9.4329 H         1 UNK         0.0000 
     62 H62        13.0443   40.2427    8.4995 H         1 UNK         0.0000 
     63 H63        14.6721   40.4043   10.3481 H         1 UNK         0.0000 
     64 H64        13.7276   39.3424   11.3515 H         1 UNK         0.0000 
     65 H65        11.1029   39.9232   11.2954 H         1 UNK         0.0000 
     66 H66        10.7267   41.5693   10.7677 H         1 UNK         0.0000 
     67 H67        11.1405   41.2518   12.4566 H         1 UNK         0.0000 
     68 H68        12.5431   43.2672   11.7206 H         1 UNK         0.0000 
     69 H69        16.4712   40.5757   11.9509 H         1 UNK         0.0000 
     70 H70        14.9206   40.8726   12.6731 H         1 UNK         0.0000 
     71 H71        17.4874   42.2029   13.5590 H         1 UNK         0.0000 
     72 H72        15.8609   42.6178   14.0982 H         1 UNK         0.0000 
     73 H73        17.3073   39.9623   14.5166 H         1 UNK         0.0000 
     74 H74        15.6522   40.2038   14.9739 H         1 UNK         0.0000 
     75 H75        15.6135   44.2319   17.0776 H         1 UNK         0.0000 
     76 H76        19.2827   41.3228   16.2235 H         1 UNK         0.0000 
     77 H77        17.8236   45.7544   17.3325 H         1 UNK         0.0000 
     78 H78        18.6967   45.9352   15.8246 H         1 UNK         0.0000 
     79 H79        16.4938   47.3925   16.4348 H         1 UNK         0.0000 
     80 H80        15.6500   46.0695   15.7169 H         1 UNK         0.0000 
     81 H81        17.6403   47.9765   14.4733 H         1 UNK         0.0000 
     82 H82        15.9810   47.7637   14.0277 H         1 UNK         0.0000 
     83 H83        18.4345   48.4442   12.1083 H         1 UNK         0.0000 
     84 H84        20.7577   46.1847   14.2181 H         1 UNK         0.0000 
     85 H85        22.1949   46.8303   13.4543 H         1 UNK         0.0000 
     86 H86        21.1896   45.6847   12.5882 H         1 UNK         0.0000 
     87 H87        21.9684   49.0682   12.8957 H         1 UNK         0.0000 
     88 H88        20.3929   49.8039   12.8125 H         1 UNK         0.0000 
     89 H89        20.2860   48.7323   10.3542 H         1 UNK         0.0000 
     90 H90        21.9976   48.6467   10.5174 H         1 UNK         0.0000 
     91 H91        18.3736   52.6990    8.7452 H         1 UNK         0.0000 
     92 H92        16.8294   54.2636    9.3980 H         1 UNK         0.0000 
     93 H93        16.7055   54.3341   11.1573 H         1 UNK         0.0000 
     94 H94        15.4658   53.5057   10.2266 H         1 UNK         0.0000 
     95 H95        19.5040   49.3035    8.0077 H         1 UNK         0.0000 
     96 H96        18.6553   50.6715    7.3443 H         1 UNK         0.0000 
     97 H97        17.2190   48.6859    7.3318 H         1 UNK         0.0000 
     98 H98        16.5107   49.8469    8.3924 H         1 UNK         0.0000 
     99 H99        18.4673   47.8808    9.6189 H         1 UNK         0.0000 
    100 H100       17.1823   48.7797   10.3559 H         1 UNK         0.0000 
    101 H101       18.4897   46.9057    7.4375 H         1 UNK         0.0000 
    102 H102       19.1356   46.5418    5.2684 H         1 UNK         0.0000 
    103 H103       17.8080   46.0519    4.2251 H         1 UNK         0.0000 
    104 H104       19.0245   44.8634    4.7518 H         1 UNK         0.0000 
    105 H105       14.9909   45.3426    5.9299 H         1 UNK         0.0000 
    106 H106       17.0869   42.8806    7.7359 H         1 UNK         0.0000 
    107 H107       16.2364   42.1058    6.4560 H         1 UNK         0.0000 
    108 H108       18.1198   42.0677    5.2379 H         1 UNK         0.0000 
    109 Fe109      16.4256   45.0096   11.0232 Fe        1 UNK         0.0000 
@<TRIPOS>BOND
     1    1    2 1    
     2    1   60 1    
     3    2    3 1    
     4    2   61 1    
     5    2   62 1    
     6    3    4 1    
     7    3   63 1    
     8    3   64 1    
     9    4    5 1    
    10    4    6 2    
    11    5   65 1    
    12    5   66 1    
    13    5   67 1    
    14    6    7 1    
    15    6   68 1    
    16    7    8 2    
    17    7    9 am   BACKBONE|DICT|INTERRES
    18    8  109 nc   
    19    9   10 1    
    20    9   11 1    
    21   10  109 nc   
    22   11   12 1    
    23   11   69 1    
    24   11   70 1    
    25   12   13 1    
    26   12   71 1    
    27   12   72 1    
    28   13   73 1    
    29   13   74 1    
    30   13   14 1    
    31   14   16 1    
    32   14   23 1    
    33   14   15 1    
    34   16   17 2    
    35   16   18 am   BACKBONE|DICT|INTERRES
    36   18   19 1    
    37   18   75 1    
    38   19   21 1    
    39   19   24 1    
    40   19   20 1    
    41   21   22 2    
    42   21   23 am   BACKBONE|DICT|INTERRES
    43   23   76 1    
    44   24   25 1    
    45   24   77 1    
    46   24   78 1    
    47   25   26 1    
    48   25   79 1    
    49   25   80 1    
    50   26   27 1    
    51   26   81 1    
    52   26   82 1    
    53   27   28 1    
    54   27   29 am   BACKBONE|DICT|INTERRES
    55   28  109 nc   
    56   29   30 2    
    57   29   31 1    
    58   30  109 nc   
    59   31   32 2    
    60   31   83 1    
    61   32   33 1    
    62   32   34 1    
    63   33   84 1    
    64   33   85 1    
    65   33   86 1    
    66   34   35 1    
    67   34   87 1    
    68   34   88 1    
    69   35   36 1    
    70   35   89 1    
    71   35   90 1    
    72   36   37 1    
    73   37   38 2    
    74   37   39 1    
    75   39   40 1    
    76   39   41 1    
    77   39   45 1    
    78   41   42 am   BACKBONE|DICT|INTERRES
    79   41   91 1    
    80   42   43 2    
    81   42   44 1    
    82   44   92 1    
    83   44   93 1    
    84   44   94 1    
    85   45   46 1    
    86   45   95 1    
    87   45   96 1    
    88   46   47 1    
    89   46   97 1    
    90   46   98 1    
    91   47   48 1    
    92   47   99 1    
    93   47  100 1    
    94   48   49 1    
    95   48   50 am   BACKBONE|DICT|INTERRES
    96   49  109 nc   
    97   50   51 2    
    98   50   52 1    
    99   51  109 nc   
   100   52   53 2    
   101   52  101 1    
   102   53   54 1    
   103   53   55 1    
   104   54  102 1    
   105   54  103 1    
   106   54  104 1    
   107   55   57 1    
   108   55   58 1    
   109   55   56 1    
   110   57  105 1    
   111   58   59 1    
   112   58  106 1    
   113   58  107 1    
   114   59  108 1    
@<TRIPOS>SUBSTRUCTURE
     1 UNK         1 GROUP             0       ****    0 ROOT    
