@<TRIPOS>MOLECULE
185_J1_c1
97   104    1
SMALL
USER_CHARGES


@<TRIPOS>ATOM
      1 C1          2.8676   -0.4086   -0.5481 C.ar      1 UNK         0.0000 
      2 C2          2.8782    0.6443    0.3598 C.ar      1 UNK         0.0000 
      3 C3          4.0925    1.1958    0.7596 C.ar      1 UNK         0.0000 
      4 C4          5.2839    0.7603    0.1693 C.ar      1 UNK         0.0000 
      5 O5          6.3819    1.0533    0.7264 O.co2     1 UNK         0.0000 
      6 C6          5.2633   -0.1546   -0.9009 C.ar      1 UNK         0.0000 
      7 O7          6.3582   -0.4701   -1.5027 O.co2     1 UNK         0.0000 
      8 C8          4.0620   -0.8664   -1.1251 C.ar      1 UNK         0.0000 
      9 C9          4.1097   -2.2813   -1.6618 C.2       1 UNK         0.0000 
     10 O10         3.6896   -2.5941   -2.7795 O.2       1 UNK         0.0000 
     11 N11         4.5944   -3.2211   -0.8144 N.am      1 UNK         0.0000 
     12 C12         4.5346   -3.2525    0.6648 C.3       1 UNK         0.0000 
     13 H13         3.6729   -2.6396    0.9425 H         1 UNK         0.0000 
     14 C14         5.7430   -2.5717    1.4399 C.3       1 UNK         0.0000 
     15 O15         6.9511   -2.2411    0.7883 O.co2     1 UNK         0.0000 
     16 C16         4.0881   -4.6758    1.1656 C.3       1 UNK         0.0000 
     17 C17         5.1926   -5.7641    1.1942 C.3       1 UNK         0.0000 
     18 C18         4.7347   -7.2203    1.4206 C.3       1 UNK         0.0000 
     19 C19         5.9817   -8.1087    1.6185 C.3       1 UNK         0.0000 
     20 N20         5.7652   -9.5572    1.7439 N.am      1 UNK         0.0000 
     21 C21         6.7930  -10.4059    1.9503 C.2       1 UNK         0.0000 
     22 O22         7.9440   -9.9901    2.0797 O.2       1 UNK         0.0000 
     23 C23         6.5348  -11.9051    2.0338 C.ar      1 UNK         0.0000 
     24 C24         7.6325  -12.7604    2.2210 C.ar      1 UNK         0.0000 
     25 C25         7.4645  -14.1363    2.3185 C.ar      1 UNK         0.0000 
     26 C26         6.1895  -14.6803    2.2270 C.ar      1 UNK         0.0000 
     27 C27         5.0838  -13.8558    2.0359 C.ar      1 UNK         0.0000 
     28 C28         5.2490  -12.4705    1.9375 C.ar      1 UNK         0.0000 
     29 H29         1.9553   -0.9578   -0.7140 H         1 UNK         0.0000 
     30 H30         1.9729    0.9364    0.8642 H         1 UNK         0.0000 
     31 H31         4.1397    1.8812    1.5917 H         1 UNK         0.0000 
     32 H32         5.0578   -3.9727   -1.2716 H         1 UNK         0.0000 
     33 H33         5.3170   -1.6572    1.8502 H         1 UNK         0.0000 
     34 H34         5.9087   -3.1428    2.3458 H         1 UNK         0.0000 
     35 H35         3.2637   -5.0191    0.5445 H         1 UNK         0.0000 
     36 H36         3.6553   -4.5765    2.1622 H         1 UNK         0.0000 
     37 H37         5.8969   -5.5078    1.9876 H         1 UNK         0.0000 
     38 H38         5.7786   -5.7018    0.2737 H         1 UNK         0.0000 
     39 H39         4.1451   -7.5567    0.5632 H         1 UNK         0.0000 
     40 H40         4.0840   -7.2750    2.2980 H         1 UNK         0.0000 
     41 H41         6.5319   -7.7427    2.4932 H         1 UNK         0.0000 
     42 H42         6.6629   -7.9289    0.7793 H         1 UNK         0.0000 
     43 H43         4.8360   -9.9189    1.6353 H         1 UNK         0.0000 
     44 H44         8.6364  -12.3614    2.2961 H         1 UNK         0.0000 
     45 H45         8.3226  -14.7745    2.4662 H         1 UNK         0.0000 
     46 H46         6.0632  -15.7511    2.3061 H         1 UNK         0.0000 
     47 H47         4.0995  -14.2973    1.9668 H         1 UNK         0.0000 
     48 H48         4.3724  -11.8576    1.7904 H         1 UNK         0.0000 
     49 C49        14.5383  -12.4745   -4.1408 C.ar      1 UNK         0.0000 
     50 H50        14.0573  -13.4163   -4.3579 H         1 UNK         0.0000 
     51 C51        13.7664  -11.3452   -3.8990 C.ar      1 UNK         0.0000 
     52 H52        12.6890  -11.4452   -3.9346 H         1 UNK         0.0000 
     53 C53        15.9237  -12.3800   -4.1012 C.ar      1 UNK         0.0000 
     54 O54        12.2298   -9.0611   -3.4538 O.2       1 UNK         0.0000 
     55 O55         9.4301   -1.6729   -1.2815 O.co2     1 UNK         0.0000 
     56 C56        14.3607  -10.1045   -3.6170 C.ar      1 UNK         0.0000 
     57 H57        16.5207  -13.2607   -4.2921 H         1 UNK         0.0000 
     58 C58        13.4488   -8.9092   -3.3739 C.2       1 UNK         0.0000 
     59 C59        16.5396  -11.1631   -3.8177 C.ar      1 UNK         0.0000 
     60 H60        12.4030   -6.4047   -3.6099 H         1 UNK         0.0000 
     61 C61        15.7654  -10.0239   -3.5743 C.ar      1 UNK         0.0000 
     62 N62        13.9792   -7.7041   -3.0744 N.am      1 UNK         0.0000 
     63 C63        13.1030   -6.5483   -2.7789 C.3       1 UNK         0.0000 
     64 C64        10.6488   -1.5250   -1.9896 C.3       1 UNK         0.0000 
     65 H65        11.8788   -4.1770   -2.8547 H         1 UNK         0.0000 
     66 H66        17.6188  -11.1088   -3.7896 H         1 UNK         0.0000 
     67 H67        14.3132   -4.8208   -3.3337 H         1 UNK         0.0000 
     68 H68        10.6764   -2.1178   -2.8955 H         1 UNK         0.0000 
     69 H69        16.2719   -9.0949   -3.3577 H         1 UNK         0.0000 
     70 C70        13.7521   -5.1760   -2.4645 C.3       1 UNK         0.0000 
     71 H71        14.9749   -7.6047   -3.0014 H         1 UNK         0.0000 
     72 C72        12.6541   -4.1444   -2.0873 C.3       1 UNK         0.0000 
     73 H73        10.6672   -0.5251   -2.4167 H         1 UNK         0.0000 
     74 H74        13.3933   -2.2718   -2.9013 H         1 UNK         0.0000 
     75 H75        12.4576   -6.8107   -1.9336 H         1 UNK         0.0000 
     76 C76        13.1016   -2.6635   -1.9265 C.3       1 UNK         0.0000 
     77 C77        12.0627   -1.6663   -1.2793 C.3       1 UNK         0.0000 
     78 H78        12.1491   -4.4612   -1.1713 H         1 UNK         0.0000 
     79 H79        12.7422    3.2167   -1.0372 H         1 UNK         0.0000 
     80 H80        14.4676   -5.2651   -1.6420 H         1 UNK         0.0000 
     81 H81        12.5398   -0.7052   -1.4814 H         1 UNK         0.0000 
     82 C82        12.0411    2.5405   -0.5790 C.ar      1 UNK         0.0000 
     83 H83        13.5486    1.3307    0.3331 H         1 UNK         0.0000 
     84 C84        12.4898    1.4887    0.2128 C.ar      1 UNK         0.0000 
     85 N85        12.0496   -1.7943    0.1939 N.am      1 UNK         0.0000 
     86 C86        10.6975    2.6079   -0.9340 C.ar      1 UNK         0.0000 
     87 H87        14.0140   -2.6310   -1.3361 H         1 UNK         0.0000 
     88 H88        10.3560    3.3029   -1.6867 H         1 UNK         0.0000 
     89 C89        11.5897    0.5440    0.7297 C.ar      1 UNK         0.0000 
     90 C90        12.1179   -0.8190    1.1309 C.2       1 UNK         0.0000 
     91 H91        11.9630   -2.7069    0.5772 H         1 UNK         0.0000 
     92 C92         9.7924    1.6835   -0.4056 C.ar      1 UNK         0.0000 
     93 C93        10.2003    0.7520    0.5679 C.ar      1 UNK         0.0000 
     94 O94         8.6532    1.5783   -0.9423 O.co2     1 UNK         0.0000 
     95 O95        12.6438   -1.0397    2.2255 O.2       1 UNK         0.0000 
     96 O96         9.3289   -0.0020    1.1450 O.co2     1 UNK         0.0000 
     97 Fe97        7.8445   -0.2608   -0.1765 Fe        1 UNK         0.0000 
@<TRIPOS>BOND
     1    1    2 ar   
     2    1    8 ar   
     3    1   29 1    
     4    2    3 ar   
     5    2   30 1    
     6    3    4 ar   
     7    3   31 1    
     8    4    5 1    
     9    4    6 ar   
    10    5   97 nc   
    11    6    7 1    
    12    6    8 ar   
    13    7   97 nc   
    14    8    9 1    
    15    9   10 2    
    16    9   11 am   BACKBONE|DICT|INTERRES
    17   11   32 1    
    18   11   12 1    
    19   12   14 1    
    20   12   16 1    
    21   12   13 1    
    22   14   15 1    
    23   14   33 1    
    24   14   34 1    
    25   15   97 nc   
    26   16   17 1    
    27   16   35 1    
    28   16   36 1    
    29   17   18 1    
    30   17   37 1    
    31   17   38 1    
    32   18   19 1    
    33   18   39 1    
    34   18   40 1    
    35   19   20 1    
    36   19   41 1    
    37   19   42 1    
    38   20   21 am   BACKBONE|DICT|INTERRES
    39   20   43 1    
    40   21   22 2    
    41   21   23 1    
    42   23   24 ar   
    43   23   28 ar   
    44   24   25 ar   
    45   24   44 1    
    46   25   26 ar   
    47   25   45 1    
    48   26   27 ar   
    49   26   46 1    
    50   27   28 ar   
    51   27   47 1    
    52   28   48 1    
    53   49   53 ar   
    54   49   50 1    
    55   49   51 ar   
    56   51   52 1    
    57   51   56 ar   
    58   53   59 ar   
    59   53   57 1    
    60   54   58 2    
    61   55   64 1    
    62   55   97 nc   
    63   56   61 ar   
    64   56   58 1    
    65   58   62 am   BACKBONE|DICT|INTERRES
    66   59   61 ar   
    67   59   66 1    
    68   60   63 1    
    69   61   69 1    
    70   62   71 1    
    71   62   63 1    
    72   63   75 1    
    73   63   70 1    
    74   64   73 1    
    75   64   68 1    
    76   64   77 1    
    77   65   72 1    
    78   67   70 1    
    79   70   80 1    
    80   70   72 1    
    81   72   78 1    
    82   72   76 1    
    83   74   76 1    
    84   76   87 1    
    85   76   77 1    
    86   77   81 1    
    87   77   85 1    
    88   79   82 1    
    89   82   86 ar   
    90   82   84 ar   
    91   83   84 1    
    92   84   89 ar   
    93   85   91 1    
    94   85   90 am   BACKBONE|DICT|INTERRES
    95   86   92 ar   
    96   86   88 1    
    97   89   90 1    
    98   89   93 ar   
    99   90   95 2    
   100   92   94 1    
   101   92   93 ar   
   102   93   96 1    
   103   94   97 nc   
   104   96   97 nc   
@<TRIPOS>SUBSTRUCTURE
     1 UNK         1 GROUP             0       ****    0 ROOT    
