@<TRIPOS>MOLECULE
244_c1
74   78    1
SMALL
USER_CHARGES


@<TRIPOS>ATOM
      1 Fe1        -0.0791    2.0714   -0.2687 Fe        1 UNK         0.0000 
      2 O2         -1.7004    2.4364    1.1397 O.co2     1 UNK         0.0000 
      3 C3         -1.2807    3.2619    1.9445 C.2       1 UNK         0.0000 
      4 C4         -2.2331    4.1641    2.7240 C.3       1 UNK         0.0000 
      5 N5          0.0634    3.2997    2.0291 N.am      1 UNK         0.0000 
      6 O6          0.7565    2.3231    1.4459 O.co2     1 UNK         0.0000 
      7 C7          0.8589    4.4614    2.5149 C.3       1 UNK         0.0000 
      8 C8          0.4830    5.9061    2.0438 C.3       1 UNK         0.0000 
      9 C9          1.3924    6.5433    0.9390 C.3       1 UNK         0.0000 
     10 C10         0.8082    6.8714   -0.4514 C.2       1 UNK         0.0000 
     11 O11         1.2033    7.8869   -1.0341 O.2       1 UNK         0.0000 
     12 C12        -0.2953    5.9960   -1.0739 C.3       1 UNK         0.0000 
     13 C13         0.0482    4.6505   -1.8194 C.3       1 UNK         0.0000 
     14 O14        -0.8698    3.7579   -1.2542 O.co2     1 UNK         0.0000 
     15 C15         1.5212    4.0939   -1.5151 C.2       1 UNK         0.0000 
     16 O16         1.4858    2.9799   -0.8984 O.co2     1 UNK         0.0000 
     17 O17         2.5537    4.7196   -1.8499 O.co2     1 UNK         0.0000 
     18 C18        -0.1218    4.6906   -3.3876 C.3       1 UNK         0.0000 
     19 C19        -1.3433    3.9826   -4.0497 C.2       1 UNK         0.0000 
     20 O20        -2.4255    4.5603   -4.2006 O.2       1 UNK         0.0000 
     21 C21        -1.1569    2.5597   -4.6304 C.3       1 UNK         0.0000 
     22 C22        -2.0935    1.4529   -4.0347 C.3       1 UNK         0.0000 
     23 C23        -1.3932    0.1964   -3.4280 C.3       1 UNK         0.0000 
     24 N24        -0.9231    0.3287   -2.0417 N.am      1 UNK         0.0000 
     25 O25        -0.0053    1.2268   -1.8547 O.co2     1 UNK         0.0000 
     26 C26        -1.3589   -0.2663   -0.9262 C.2       1 UNK         0.0000 
     27 O27        -0.8468    0.2500    0.0830 O.co2     1 UNK         0.0000 
     28 C28        -2.3201   -1.4493   -0.8836 C.3       1 UNK         0.0000 
     29 C29        -1.4324   -2.7013   -0.9446 C.3       1 UNK         0.0000 
     30 C30        -2.1785   -4.0082   -0.7084 C.3       1 UNK         0.0000 
     31 C31        -1.1636   -5.1597   -0.6988 C.3       1 UNK         0.0000 
     32 C32        -1.7599   -6.5239   -0.3642 C.3       1 UNK         0.0000 
     33 C33        -0.6605   -7.5926   -0.3552 C.3       1 UNK         0.0000 
     34 C34        -1.2217   -8.9607    0.0346 C.3       1 UNK         0.0000 
     35 C35        -0.1467  -10.0536    0.0422 C.3       1 UNK         0.0000 
     36 C36        -0.7330  -11.4095    0.4526 C.3       1 UNK         0.0000 
     37 H37        -2.8510    3.5659    3.3903 H         1 UNK         0.0000 
     38 H38        -1.7231    4.9126    3.3287 H         1 UNK         0.0000 
     39 H39        -2.8850    4.6619    2.0073 H         1 UNK         0.0000 
     40 H40         0.8167    4.4151    3.6009 H         1 UNK         0.0000 
     41 H41         1.9145    4.3036    2.2950 H         1 UNK         0.0000 
     42 H42        -0.5753    6.0414    1.8262 H         1 UNK         0.0000 
     43 H43         0.6407    6.5405    2.9223 H         1 UNK         0.0000 
     44 H44         2.3361    6.0049    0.8132 H         1 UNK         0.0000 
     45 H45         1.6742    7.5284    1.3123 H         1 UNK         0.0000 
     46 H46        -1.0098    5.8224   -0.2640 H         1 UNK         0.0000 
     47 H47        -0.8744    6.6179   -1.7436 H         1 UNK         0.0000 
     48 H48         0.7285    4.2003   -3.8518 H         1 UNK         0.0000 
     49 H49        -0.0375    5.7034   -3.7526 H         1 UNK         0.0000 
     50 H50        -0.0968    2.2773   -4.5975 H         1 UNK         0.0000 
     51 H51        -1.4078    2.6688   -5.6909 H         1 UNK         0.0000 
     52 H52        -2.6957    1.1037   -4.8624 H         1 UNK         0.0000 
     53 H53        -2.8203    1.8684   -3.3392 H         1 UNK         0.0000 
     54 H54        -2.0358   -0.6847   -3.5647 H         1 UNK         0.0000 
     55 H55        -0.5253   -0.0102   -4.0628 H         1 UNK         0.0000 
     56 H56        -2.8832   -1.4126    0.0542 H         1 UNK         0.0000 
     57 H57        -3.0403   -1.4006   -1.7042 H         1 UNK         0.0000 
     58 H58        -0.6221   -2.6331   -0.2066 H         1 UNK         0.0000 
     59 H59        -0.9187   -2.7546   -1.9143 H         1 UNK         0.0000 
     60 H60        -2.9319   -4.1504   -1.4875 H         1 UNK         0.0000 
     61 H61        -2.7161   -3.9517    0.2416 H         1 UNK         0.0000 
     62 H62        -0.3827   -4.9333    0.0312 H         1 UNK         0.0000 
     63 H63        -0.6675   -5.1991   -1.6700 H         1 UNK         0.0000 
     64 H64        -2.2449   -6.4854    0.6138 H         1 UNK         0.0000 
     65 H65        -2.5364   -6.7836   -1.0871 H         1 UNK         0.0000 
     66 H66         0.1304   -7.3078    0.3426 H         1 UNK         0.0000 
     67 H67        -0.1863   -7.6533   -1.3376 H         1 UNK         0.0000 
     68 H68        -2.0196   -9.2340   -0.6581 H         1 UNK         0.0000 
     69 H69        -1.6844   -8.8925    1.0210 H         1 UNK         0.0000 
     70 H70         0.3106  -10.1328   -0.9474 H         1 UNK         0.0000 
     71 H71         0.6601   -9.7806    0.7273 H         1 UNK         0.0000 
     72 H72        -1.1625  -11.3621    1.4556 H         1 UNK         0.0000 
     73 H73         0.0348  -12.1854    0.4528 H         1 UNK         0.0000 
     74 H74        -1.5245  -11.7195   -0.2331 H         1 UNK         0.0000 
@<TRIPOS>BOND
     1    1    2 nc   
     2    1    6 nc   
     3    1   14 nc   
     4    1   16 nc   
     5    1   25 nc   
     6    1   27 nc   
     7    2    3 2    
     8    3    4 1    
     9    3    5 am   BACKBONE|DICT|INTERRES
    10    4   38 1    
    11    4   37 1    
    12    4   39 1    
    13    5    7 1    
    14    5    6 1    
    15    7   40 1    
    16    7    8 1    
    17    7   41 1    
    18    8   42 1    
    19    8   43 1    
    20    8    9 1    
    21    9   44 1    
    22    9   45 1    
    23    9   10 1    
    24   10   11 2    
    25   10   12 1    
    26   12   46 1    
    27   12   13 1    
    28   12   47 1    
    29   13   14 1    
    30   13   15 1    
    31   13   18 1    
    32   15   16 1    
    33   15   17 2    
    34   18   19 1    
    35   18   48 1    
    36   18   49 1    
    37   19   20 2    
    38   19   21 1    
    39   21   22 1    
    40   21   50 1    
    41   21   51 1    
    42   22   53 1    
    43   22   23 1    
    44   22   52 1    
    45   23   24 1    
    46   23   54 1    
    47   23   55 1    
    48   24   25 1    
    49   24   26 am   BACKBONE|DICT|INTERRES
    50   26   28 1    
    51   26   27 2    
    52   28   29 1    
    53   28   56 1    
    54   28   57 1    
    55   29   30 1    
    56   29   58 1    
    57   29   59 1    
    58   30   61 1    
    59   30   31 1    
    60   30   60 1    
    61   31   32 1    
    62   31   62 1    
    63   31   63 1    
    64   32   33 1    
    65   32   64 1    
    66   32   65 1    
    67   33   34 1    
    68   33   66 1    
    69   33   67 1    
    70   34   35 1    
    71   34   69 1    
    72   34   68 1    
    73   35   36 1    
    74   35   71 1    
    75   35   70 1    
    76   36   72 1    
    77   36   73 1    
    78   36   74 1    
@<TRIPOS>SUBSTRUCTURE
     1 UNK         1 GROUP             0       ****    0 ROOT    
