@<TRIPOS>MOLECULE
263_B_c1
140   145    1
SMALL
USER_CHARGES


@<TRIPOS>ATOM
      1 Fe1         3.7451   -3.3824   -2.1175 Fe        1 UNK         0.0000 
      2 C2          3.0960   -6.8773   -3.9334 C.3       1 UNK         0.0000 
      3 C3          2.9835   -5.3906   -3.6073 C.2       1 UNK         0.0000 
      4 O4          2.5746   -5.0081   -2.4981 O.co2     1 UNK         0.0000 
      5 N5          3.4867   -4.3993   -4.3938 N.am      1 UNK         0.0000 
      6 O6          3.1932   -3.1243   -4.1535 O.co2     1 UNK         0.0000 
      7 C7          4.6222   -4.5976   -5.3345 C.3       1 UNK         0.0000 
      8 C8          5.4409   -3.3300   -5.7817 C.3       1 UNK         0.0000 
      9 C9          6.5380   -2.7812   -4.8205 C.3       1 UNK         0.0000 
     10 C10         6.4855   -1.2663   -4.3993 C.3       1 UNK         0.0000 
     11 H11         6.4220   -0.6802   -5.3251 H         1 UNK         0.0000 
     12 C12         5.2424   -0.8262   -3.5300 C.2       1 UNK         0.0000 
     13 O13         4.9932   -1.5497   -2.5248 O.co2     1 UNK         0.0000 
     14 O14         4.8480    0.3362   -3.7373 O.co2     1 UNK         0.0000 
     15 N15         7.7144   -0.7610   -3.7212 N.am      1 UNK         0.0000 
     16 C16         8.1841   -1.2484   -2.5613 C.2       1 UNK         0.0000 
     17 O17         7.8871   -2.3570   -2.1200 O.2       1 UNK         0.0000 
     18 C18         9.0437   -0.3234   -1.6992 C.3       1 UNK         0.0000 
     19 H19         8.8635    0.6992   -2.0267 H         1 UNK         0.0000 
     20 C20        10.5359   -0.6715   -1.9506 C.3       1 UNK         0.0000 
     21 O21        11.4045    0.3858   -1.5928 O.3       1 UNK         0.0000 
     22 N22         8.5437   -0.4194   -0.3036 N.am      1 UNK         0.0000 
     23 C23         9.2008   -0.7319    0.8263 C.2       1 UNK         0.0000 
     24 O24        10.4220   -0.8462    0.8999 O.2       1 UNK         0.0000 
     25 C25         8.3780   -1.0266    2.1076 C.3       1 UNK         0.0000 
     26 H26         8.9700   -0.5850    2.9164 H         1 UNK         0.0000 
     27 C27         8.3921   -2.5760    2.3656 C.3       1 UNK         0.0000 
     28 C28         7.7521   -3.5007    1.3084 C.3       1 UNK         0.0000 
     29 C29         6.2183   -3.3863    1.1663 C.3       1 UNK         0.0000 
     30 N30         5.4862   -4.0066    0.0356 N.am      1 UNK         0.0000 
     31 O31         4.2105   -3.5894    0.0155 O.co2     1 UNK         0.0000 
     32 C32         6.0169   -4.7390   -0.9947 C.2       1 UNK         0.0000 
     33 O33         5.3500   -4.8078   -2.0325 O.co2     1 UNK         0.0000 
     34 C34         7.3316   -5.4965   -0.9178 C.3       1 UNK         0.0000 
     35 N35         7.0776   -0.3050    2.1849 N.am      1 UNK         0.0000 
     36 C36         6.1068   -0.5626    3.0907 C.2       1 UNK         0.0000 
     37 O37         6.0505   -1.5878    3.7620 O.2       1 UNK         0.0000 
     38 C38         5.0334    0.4986    3.4007 C.3       1 UNK         0.0000 
     39 H39         4.2012   -0.0378    3.8653 H         1 UNK         0.0000 
     40 C40         5.6077    1.4353    4.5024 C.3       1 UNK         0.0000 
     41 O41         6.6399    2.2754    4.0089 O.3       1 UNK         0.0000 
     42 N42         4.4507    1.1839    2.2186 N.am      1 UNK         0.0000 
     43 C43         3.6728    2.2830    2.2881 C.2       1 UNK         0.0000 
     44 O44         3.5013    2.9134    3.3305 O.2       1 UNK         0.0000 
     45 C45         2.9064    2.8075    1.0411 C.3       1 UNK         0.0000 
     46 H46         2.9642    3.8841    1.2319 H         1 UNK         0.0000 
     47 C47         1.3672    2.5396    1.1420 C.3       1 UNK         0.0000 
     48 C48         0.8458    1.1258    0.8474 C.2       1 UNK         0.0000 
     49 O49         1.1712    0.1772    1.5606 O.2       1 UNK         0.0000 
     50 C50        -0.0452    0.9878   -0.3960 C.3       1 UNK         0.0000 
     51 H51        -0.1331    1.9807   -0.8352 H         1 UNK         0.0000 
     52 C52         0.5204    0.0627   -1.5300 C.3       1 UNK         0.0000 
     53 H53        -0.0323   -0.8802   -1.5185 H         1 UNK         0.0000 
     54 O54         0.2401    0.6699   -2.8010 O.3       1 UNK         0.0000 
     55 C55         2.0063   -0.3655   -1.4545 C.2       1 UNK         0.0000 
     56 O56         2.2672   -1.5694   -1.4303 O.co2     1 UNK         0.0000 
     57 N57         3.0028    0.5402   -1.4476 N.am      1 UNK         0.0000 
     58 C58         2.9359    1.9949   -1.5425 C.3       1 UNK         0.0000 
     59 C59         3.6190    2.7094   -0.3570 C.3       1 UNK         0.0000 
     60 N60        -1.4160    0.5261   -0.0687 N.3       1 UNK         0.0000 
     61 C61        -2.2325    1.4469    0.7123 C.3       1 UNK         0.0000 
     62 C62        -3.7352    1.2560    0.4460 C.2       1 UNK         0.0000 
     63 O63        -4.1472    0.5709   -0.4956 O.2       1 UNK         0.0000 
     64 C64        -4.6861    2.0102    1.3728 C.3       1 UNK         0.0000 
     65 C65        -6.1437    2.0268    0.8857 C.3       1 UNK         0.0000 
     66 C66        -7.0521    2.7907    1.8502 C.3       1 UNK         0.0000 
     67 C67        -8.4419    3.0271    1.2495 C.3       1 UNK         0.0000 
     68 C68        -9.3830    3.7579    2.2173 C.3       1 UNK         0.0000 
     69 C69       -10.6374    4.2745    1.5473 C.2       1 UNK         0.0000 
     70 C70       -11.5532    3.5066    0.9307 C.2       1 UNK         0.0000 
     71 C71       -12.7822    4.0772    0.2565 C.3       1 UNK         0.0000 
     72 C72       -13.6561    3.0298   -0.4539 C.3       1 UNK         0.0000 
     73 C73       -14.8474    3.6475   -1.2163 C.3       1 UNK         0.0000 
     74 C74       -15.8525    4.4350   -0.3450 C.3       1 UNK         0.0000 
     75 C75       -16.5528    3.6168    0.7582 C.3       1 UNK         0.0000 
     76 C76       -17.4355    2.4826    0.2200 C.3       1 UNK         0.0000 
     77 H77         2.0930   -7.2874   -4.0479 H         1 UNK         0.0000 
     78 H78         3.5855   -7.3881   -3.1022 H         1 UNK         0.0000 
     79 H79         3.6549   -7.0819   -4.8439 H         1 UNK         0.0000 
     80 H80         4.1989   -5.0704   -6.2250 H         1 UNK         0.0000 
     81 H81         5.3352   -5.3277   -4.9312 H         1 UNK         0.0000 
     82 H82         4.7761   -2.5365   -6.1306 H         1 UNK         0.0000 
     83 H83         5.9660   -3.6321   -6.6831 H         1 UNK         0.0000 
     84 H84         7.4886   -2.9003   -5.3266 H         1 UNK         0.0000 
     85 H85         6.6273   -3.4171   -3.9496 H         1 UNK         0.0000 
     86 H86         7.9514    0.1987   -3.9449 H         1 UNK         0.0000 
     87 H87        10.8316   -1.6102   -1.4781 H         1 UNK         0.0000 
     88 H88        10.6841   -0.8267   -3.0196 H         1 UNK         0.0000 
     89 H89        11.8632    0.1076   -0.7885 H         1 UNK         0.0000 
     90 H90         7.5368   -0.3902   -0.2471 H         1 UNK         0.0000 
     91 H91         8.0489   -2.8269    3.3681 H         1 UNK         0.0000 
     92 H92         9.4403   -2.8692    2.4142 H         1 UNK         0.0000 
     93 H93         8.2319   -3.3048    0.3572 H         1 UNK         0.0000 
     94 H94         7.9827   -4.5198    1.5988 H         1 UNK         0.0000 
     95 H95         5.7501   -3.6695    2.1103 H         1 UNK         0.0000 
     96 H96         6.0138   -2.3277    1.0566 H         1 UNK         0.0000 
     97 H97         8.1911   -4.8718   -1.1536 H         1 UNK         0.0000 
     98 H98         7.4558   -5.9539    0.0578 H         1 UNK         0.0000 
     99 H99         7.3296   -6.3085   -1.6431 H         1 UNK         0.0000 
    100 H100        7.0813    0.6234    1.7873 H         1 UNK         0.0000 
    101 H101        4.8546    2.0218    5.0262 H         1 UNK         0.0000 
    102 H102        6.0314    0.8160    5.2957 H         1 UNK         0.0000 
    103 H103        6.7328    3.0043    4.6317 H         1 UNK         0.0000 
    104 H104        4.4337    0.6355    1.3710 H         1 UNK         0.0000 
    105 H105        0.8485    3.2457    0.4990 H         1 UNK         0.0000 
    106 H106        1.0260    2.7757    2.1533 H         1 UNK         0.0000 
    107 H107        1.0548    0.7307   -3.3174 H         1 UNK         0.0000 
    108 H108        3.9355    0.1557   -1.6069 H         1 UNK         0.0000 
    109 H109        1.9173    2.3680   -1.6644 H         1 UNK         0.0000 
    110 H110        3.4466    2.2850   -2.4644 H         1 UNK         0.0000 
    111 H111        4.6407    2.3429   -0.2461 H         1 UNK         0.0000 
    112 H112        3.7538    3.7296   -0.7108 H         1 UNK         0.0000 
    113 H113       -1.9237    0.3331   -0.9334 H         1 UNK         0.0000 
    114 H114       -2.0276    1.3218    1.7770 H         1 UNK         0.0000 
    115 H115       -1.9908    2.4783    0.4493 H         1 UNK         0.0000 
    116 H116       -4.6248    1.5458    2.3564 H         1 UNK         0.0000 
    117 H117       -4.3276    3.0336    1.4749 H         1 UNK         0.0000 
    118 H118       -6.1816    2.4834   -0.1065 H         1 UNK         0.0000 
    119 H119       -6.5161    1.0064    0.7650 H         1 UNK         0.0000 
    120 H120       -6.6032    3.7572    2.0920 H         1 UNK         0.0000 
    121 H121       -7.1307    2.2348    2.7875 H         1 UNK         0.0000 
    122 H122       -8.3343    3.6175    0.3360 H         1 UNK         0.0000 
    123 H123       -8.8903    2.0767    0.9490 H         1 UNK         0.0000 
    124 H124       -9.6708    3.0899    3.0312 H         1 UNK         0.0000 
    125 H125       -8.8749    4.6134    2.6668 H         1 UNK         0.0000 
    126 H126      -10.7856    5.3448    1.5695 H         1 UNK         0.0000 
    127 H127      -11.4173    2.4337    0.9005 H         1 UNK         0.0000 
    128 H128      -12.4519    4.8296   -0.4628 H         1 UNK         0.0000 
    129 H129      -13.3593    4.5878    1.0291 H         1 UNK         0.0000 
    130 H130      -14.0125    2.2930    0.2687 H         1 UNK         0.0000 
    131 H131      -13.0406    2.4768   -1.1651 H         1 UNK         0.0000 
    132 H132      -14.4610    4.3154   -1.9880 H         1 UNK         0.0000 
    133 H133      -15.3740    2.8593   -1.7561 H         1 UNK         0.0000 
    134 H134      -15.3446    5.2834    0.1150 H         1 UNK         0.0000 
    135 H135      -16.6111    4.8750   -0.9941 H         1 UNK         0.0000 
    136 H136      -17.1748    4.2912    1.3478 H         1 UNK         0.0000 
    137 H137      -15.8161    3.2088    1.4524 H         1 UNK         0.0000 
    138 H138      -17.9595    1.9864    1.0365 H         1 UNK         0.0000 
    139 H139      -16.8440    1.7272   -0.2992 H         1 UNK         0.0000 
    140 H140      -18.1842    2.8652   -0.4754 H         1 UNK         0.0000 
@<TRIPOS>BOND
     1    1    4 nc   
     2    1    6 nc   
     3    1   13 nc   
     4    1   31 nc   
     5    1   33 nc   
     6    1   56 nc   
     7    2   78 1    
     8    2    3 1    
     9    2   77 1    
    10    2   79 1    
    11    3    4 2    
    12    3    5 am   BACKBONE|DICT|INTERRES
    13    5    6 1    
    14    5    7 1    
    15    7   81 1    
    16    7    8 1    
    17    7   80 1    
    18    8    9 1    
    19    8   82 1    
    20    8   83 1    
    21    9   10 1    
    22    9   85 1    
    23    9   84 1    
    24   10   11 1    
    25   10   15 1    
    26   10   12 1    
    27   12   13 1    
    28   12   14 2    
    29   15   16 am   BACKBONE|DICT|INTERRES
    30   15   86 1    
    31   16   17 2    
    32   16   18 1    
    33   18   19 1    
    34   18   22 1    
    35   18   20 1    
    36   20   87 1    
    37   20   21 1    
    38   20   88 1    
    39   21   89 1    
    40   22   90 1    
    41   22   23 am   BACKBONE|DICT|INTERRES
    42   23   25 1    
    43   23   24 2    
    44   25   35 1    
    45   25   27 1    
    46   25   26 1    
    47   27   92 1    
    48   27   91 1    
    49   27   28 1    
    50   28   94 1    
    51   28   29 1    
    52   28   93 1    
    53   29   95 1    
    54   29   30 1    
    55   29   96 1    
    56   30   31 1    
    57   30   32 am   BACKBONE|DICT|INTERRES
    58   32   34 1    
    59   32   33 2    
    60   34   98 1    
    61   34   97 1    
    62   34   99 1    
    63   35   36 am   BACKBONE|DICT|INTERRES
    64   35  100 1    
    65   36   38 1    
    66   36   37 2    
    67   38   39 1    
    68   38   40 1    
    69   38   42 1    
    70   40  101 1    
    71   40  102 1    
    72   40   41 1    
    73   41  103 1    
    74   42   43 am   BACKBONE|DICT|INTERRES
    75   42  104 1    
    76   43   44 2    
    77   43   45 1    
    78   45   47 1    
    79   45   46 1    
    80   45   59 1    
    81   47  106 1    
    82   47   48 1    
    83   47  105 1    
    84   48   49 2    
    85   48   50 1    
    86   50   51 1    
    87   50   60 1    
    88   50   52 1    
    89   52   55 1    
    90   52   53 1    
    91   52   54 1    
    92   54  107 1    
    93   55   56 2    
    94   55   57 am   BACKBONE|DICT|INTERRES
    95   57  108 1    
    96   57   58 1    
    97   58   59 1    
    98   58  109 1    
    99   58  110 1    
   100   59  111 1    
   101   59  112 1    
   102   60   61 1    
   103   60  113 1    
   104   61  114 1    
   105   61   62 1    
   106   61  115 1    
   107   62   64 1    
   108   62   63 2    
   109   64  117 1    
   110   64  116 1    
   111   64   65 1    
   112   65   66 1    
   113   65  118 1    
   114   65  119 1    
   115   66  120 1    
   116   66  121 1    
   117   66   67 1    
   118   67   68 1    
   119   67  122 1    
   120   67  123 1    
   121   68  125 1    
   122   68  124 1    
   123   68   69 1    
   124   69  126 1    
   125   69   70 2    
   126   70   71 1    
   127   70  127 1    
   128   71  129 1    
   129   71   72 1    
   130   71  128 1    
   131   72  130 1    
   132   72   73 1    
   133   72  131 1    
   134   73   74 1    
   135   73  132 1    
   136   73  133 1    
   137   74  134 1    
   138   74   75 1    
   139   74  135 1    
   140   75  136 1    
   141   75  137 1    
   142   75   76 1    
   143   76  138 1    
   144   76  139 1    
   145   76  140 1    
@<TRIPOS>SUBSTRUCTURE
     1 UNK         1 GROUP             0       ****    0 ROOT    
