@<TRIPOS>MOLECULE
269_c1
66   73    1
SMALL
USER_CHARGES


@<TRIPOS>ATOM
      1 Fe1        -0.3482    2.3971    0.1893 Fe        1 UNK         0.0000 
      2 C2          2.1121    0.9035   -4.2929 C.ar      1 UNK         0.0000 
      3 C3          2.5537    2.2247   -4.2384 C.ar      1 UNK         0.0000 
      4 C4          2.0098    3.1065   -3.3076 C.ar      1 UNK         0.0000 
      5 C5          1.0389    2.6583   -2.4224 C.ar      1 UNK         0.0000 
      6 O6          0.5249    3.4624   -1.5882 O.co2     1 UNK         0.0000 
      7 C7          0.6365    1.3115   -2.4182 C.ar      1 UNK         0.0000 
      8 O8         -0.1617    0.9676   -1.4793 O.co2     1 UNK         0.0000 
      9 C9          1.1533    0.4174   -3.3961 C.ar      1 UNK         0.0000 
     10 C10         0.7269   -1.0253   -3.5096 C.2       1 UNK         0.0000 
     11 O11         0.8977   -1.6972   -4.5319 O.2       1 UNK         0.0000 
     12 N12         0.1733   -1.5323   -2.4108 N.am      1 UNK         0.0000 
     13 C13        -0.4280   -2.8479   -2.2797 C.3       1 UNK         0.0000 
     14 C14        -0.6583   -3.2711   -0.8113 C.3       1 UNK         0.0000 
     15 N15        -1.6791   -2.3812   -0.0379 N.4       1 UNK         0.0000 
     16 H16        -1.2760   -1.4417    0.0367 H         1 UNK         0.0000 
     17 C17        -1.8939   -2.8761    1.4274 C.3       1 UNK         0.0000 
     18 C18        -0.5921   -3.0019    2.2546 C.3       1 UNK         0.0000 
     19 N19         0.1724   -1.7680    2.3430 N.am      1 UNK         0.0000 
     20 C20         1.3030   -1.5633    3.0109 C.2       1 UNK         0.0000 
     21 O21         1.8531   -2.4719    3.6431 O.2       1 UNK         0.0000 
     22 C22         1.8617   -0.1518    2.9215 C.ar      1 UNK         0.0000 
     23 C23         1.2107    0.9076    2.2384 C.ar      1 UNK         0.0000 
     24 O24         0.0969    0.7780    1.6315 O.co2     1 UNK         0.0000 
     25 C25         1.8161    2.1708    2.1726 C.ar      1 UNK         0.0000 
     26 O26         1.2809    3.1083    1.5316 O.co2     1 UNK         0.0000 
     27 C27         3.0351    2.4152    2.7763 C.ar      1 UNK         0.0000 
     28 C28         3.6949    1.3803    3.4276 C.ar      1 UNK         0.0000 
     29 C29         3.1132    0.1115    3.4986 C.ar      1 UNK         0.0000 
     30 C30        -3.0094   -2.2224   -0.8394 C.3       1 UNK         0.0000 
     31 C31        -4.1730   -1.5517   -0.0688 C.3       1 UNK         0.0000 
     32 N32        -3.8544   -0.2358    0.4651 N.am      1 UNK         0.0000 
     33 C33        -4.5900    0.5060    1.2938 C.2       1 UNK         0.0000 
     34 O34        -5.6463    0.0721    1.7778 O.2       1 UNK         0.0000 
     35 C35        -4.0311    1.8813    1.5925 C.ar      1 UNK         0.0000 
     36 C36        -2.8651    2.4041    0.9684 C.ar      1 UNK         0.0000 
     37 O37        -2.0763    1.7705    0.1881 O.co2     1 UNK         0.0000 
     38 C38        -2.3987    3.6654    1.3019 C.ar      1 UNK         0.0000 
     39 O39        -1.2983    3.9793    0.7819 O.co2     1 UNK         0.0000 
     40 C40        -3.0316    4.4490    2.2587 C.ar      1 UNK         0.0000 
     41 C41        -4.1505    3.9346    2.9163 C.ar      1 UNK         0.0000 
     42 C42        -4.6474    2.6638    2.5874 C.ar      1 UNK         0.0000 
     43 H43         2.5216    0.2335   -5.0258 H         1 UNK         0.0000 
     44 H44         3.3035    2.5605   -4.9271 H         1 UNK         0.0000 
     45 H45         2.3509    4.1270   -3.2582 H         1 UNK         0.0000 
     46 H46         0.0370   -0.7307   -1.7636 H         1 UNK         0.0000 
     47 H47         0.2531   -3.5665   -2.7319 H         1 UNK         0.0000 
     48 H48        -1.3361   -2.9174   -2.8775 H         1 UNK         0.0000 
     49 H49        -1.0756   -4.2786   -0.7663 H         1 UNK         0.0000 
     50 H50         0.2788   -3.2446   -0.2540 H         1 UNK         0.0000 
     51 H51        -2.3898   -3.8416    1.3329 H         1 UNK         0.0000 
     52 H52        -2.5670   -2.1701    1.9168 H         1 UNK         0.0000 
     53 H53         0.0463   -3.8045    1.8862 H         1 UNK         0.0000 
     54 H54        -0.8493   -3.2966    3.2703 H         1 UNK         0.0000 
     55 H55        -0.1182   -0.8317    1.9796 H         1 UNK         0.0000 
     56 H56         3.4683    3.3969    2.6853 H         1 UNK         0.0000 
     57 H57         4.6649    1.5685    3.8531 H         1 UNK         0.0000 
     58 H58         3.6429   -0.6842    3.9924 H         1 UNK         0.0000 
     59 H59        -2.7725   -1.6534   -1.7396 H         1 UNK         0.0000 
     60 H60        -3.2940   -3.2386   -1.1182 H         1 UNK         0.0000 
     61 H61        -4.5402   -2.2111    0.7214 H         1 UNK         0.0000 
     62 H62        -5.0166   -1.4308   -0.7498 H         1 UNK         0.0000 
     63 H63        -3.0680    0.3617    0.1433 H         1 UNK         0.0000 
     64 H64        -2.6152    5.3985    2.5620 H         1 UNK         0.0000 
     65 H65        -4.6227    4.5011    3.7035 H         1 UNK         0.0000 
     66 H66        -5.5114    2.2748    3.1133 H         1 UNK         0.0000 
@<TRIPOS>BOND
     1    1    6 nc   
     2    1    8 nc   
     3    1   24 nc   
     4    1   26 nc   
     5    1   37 nc   
     6    1   39 nc   
     7    2    9 ar   
     8    2    3 ar   
     9    2   43 1    
    10    3    4 ar   
    11    3   44 1    
    12    4    5 ar   
    13    4   45 1    
    14    5    7 ar   
    15    5    6 1    
    16    7    8 1    
    17    7    9 ar   
    18    9   10 1    
    19   10   12 am   BACKBONE|DICT|INTERRES
    20   10   11 2    
    21   12   46 1    
    22   12   13 1    
    23   13   14 1    
    24   13   47 1    
    25   13   48 1    
    26   14   50 1    
    27   14   15 1    
    28   14   49 1    
    29   15   16 1    
    30   15   17 1    
    31   15   30 1    
    32   17   51 1    
    33   17   52 1    
    34   17   18 1    
    35   18   19 1    
    36   18   54 1    
    37   18   53 1    
    38   19   20 am   BACKBONE|DICT|INTERRES
    39   19   55 1    
    40   20   21 2    
    41   20   22 1    
    42   22   29 ar   
    43   22   23 ar   
    44   23   24 1    
    45   23   25 ar   
    46   25   27 ar   
    47   25   26 1    
    48   27   28 ar   
    49   27   56 1    
    50   28   29 ar   
    51   28   57 1    
    52   29   58 1    
    53   30   31 1    
    54   30   59 1    
    55   30   60 1    
    56   31   32 1    
    57   31   61 1    
    58   31   62 1    
    59   32   33 am   BACKBONE|DICT|INTERRES
    60   32   63 1    
    61   33   34 2    
    62   33   35 1    
    63   35   42 ar   
    64   35   36 ar   
    65   36   38 ar   
    66   36   37 1    
    67   38   40 ar   
    68   38   39 1    
    69   40   64 1    
    70   40   41 ar   
    71   41   65 1    
    72   41   42 ar   
    73   42   66 1    
@<TRIPOS>SUBSTRUCTURE
     1 UNK         1 GROUP             0       ****    0 ROOT    
