@<TRIPOS>MOLECULE
122_c1
70   78    1
SMALL
USER_CHARGES


@<TRIPOS>ATOM
      1 Fe1        -1.7275   -1.9895    0.0730 Fe        1 UNK         0.0000 
      2 C2         -0.0376   -1.9163    5.1327 C.ar      1 UNK         0.0000 
      3 C3         -0.9500   -2.9652    5.2467 C.ar      1 UNK         0.0000 
      4 C4         -1.5311   -3.5005    4.1033 C.ar      1 UNK         0.0000 
      5 C5         -1.2232   -2.9570    2.8634 C.ar      1 UNK         0.0000 
      6 O6         -1.7995   -3.3706    1.8281 O.co2     1 UNK         0.0000 
      7 C7         -0.3460   -1.8762    2.7208 C.ar      1 UNK         0.0000 
      8 O8         -0.2744   -1.4086    1.5206 O.co2     1 UNK         0.0000 
      9 C9          0.2876   -1.3568    3.8795 C.ar      1 UNK         0.0000 
     10 C10         1.2489   -0.1933    3.8489 C.2       1 UNK         0.0000 
     11 O11         2.0806    0.0101    4.7477 O.2       1 UNK         0.0000 
     12 N12         1.0804    0.6490    2.8310 N.am      1 UNK         0.0000 
     13 C13         1.8692    1.8521    2.5423 C.3       1 UNK         0.0000 
     14 H14         2.6570    1.9572    3.2906 H         1 UNK         0.0000 
     15 C15         2.5644    1.7353    1.1778 C.3       1 UNK         0.0000 
     16 O16         1.5978    1.5059    0.1647 O.3       1 UNK         0.0000 
     17 C17         1.6460    2.1106   -1.0261 C.2       1 UNK         0.0000 
     18 O18         2.5020    2.9442   -1.3675 O.2       1 UNK         0.0000 
     19 C19         0.4673    1.7054   -1.9024 C.3       1 UNK         0.0000 
     20 H20        -0.1161    0.9525   -1.4108 H         1 UNK         0.0000 
     21 N21         1.0539    1.2669   -3.1689 N.am      1 UNK         0.0000 
     22 C22         0.9721    0.1569   -3.9194 C.2       1 UNK         0.0000 
     23 O23         1.7304    0.1813   -4.8984 O.2       1 UNK         0.0000 
     24 C24        -0.0296   -0.9960   -3.7833 C.ar      1 UNK         0.0000 
     25 C25        -0.4759   -1.6456   -2.5904 C.ar      1 UNK         0.0000 
     26 O26        -0.3187   -1.2602   -1.3810 O.co2     1 UNK         0.0000 
     27 C27        -1.2250   -2.8291   -2.6895 C.ar      1 UNK         0.0000 
     28 O28        -1.6235   -3.3805   -1.6276 O.co2     1 UNK         0.0000 
     29 C29        -1.6101   -3.3536   -3.9182 C.ar      1 UNK         0.0000 
     30 C30        -1.2563   -2.6896   -5.0848 C.ar      1 UNK         0.0000 
     31 C31        -0.4704   -1.5422   -5.0140 C.ar      1 UNK         0.0000 
     32 C32        -0.5158    2.8761   -2.0554 C.3       1 UNK         0.0000 
     33 O33        -1.0289    3.0486   -0.7533 O.3       1 UNK         0.0000 
     34 C34        -1.8873    3.9916   -0.3980 C.2       1 UNK         0.0000 
     35 O35        -2.2259    4.9585   -1.0930 O.2       1 UNK         0.0000 
     36 C36        -2.3384    3.7797    1.0389 C.3       1 UNK         0.0000 
     37 H37        -3.0924    4.5392    1.2549 H         1 UNK         0.0000 
     38 C38        -1.1701    4.0006    2.0352 C.3       1 UNK         0.0000 
     39 O39        -0.1618    3.0019    1.9220 O.3       1 UNK         0.0000 
     40 C40         0.9814    3.0883    2.6390 C.2       1 UNK         0.0000 
     41 O41         1.3321    4.0952    3.2702 O.2       1 UNK         0.0000 
     42 N42        -2.9379    2.4296    1.1043 N.am      1 UNK         0.0000 
     43 C43        -4.1860    2.1347    1.4466 C.2       1 UNK         0.0000 
     44 O44        -4.9739    3.0126    1.8432 O.2       1 UNK         0.0000 
     45 C45        -4.6055    0.6829    1.3012 C.ar      1 UNK         0.0000 
     46 C46        -3.8331   -0.3104    0.6390 C.ar      1 UNK         0.0000 
     47 O47        -2.6219   -0.2169    0.2267 O.co2     1 UNK         0.0000 
     48 C48        -4.3765   -1.5874    0.4906 C.ar      1 UNK         0.0000 
     49 O49        -3.6497   -2.4498   -0.0456 O.co2     1 UNK         0.0000 
     50 C50        -5.6118   -1.9411    1.0187 C.ar      1 UNK         0.0000 
     51 C51        -6.3421   -0.9947    1.7229 C.ar      1 UNK         0.0000 
     52 C52        -5.8487    0.3045    1.8493 C.ar      1 UNK         0.0000 
     53 H53         0.3949   -1.5115    6.0340 H         1 UNK         0.0000 
     54 H54        -1.2287   -3.3513    6.2101 H         1 UNK         0.0000 
     55 H55        -2.2497   -4.3049    4.1443 H         1 UNK         0.0000 
     56 H56         0.4978    0.2132    2.0958 H         1 UNK         0.0000 
     57 H57         3.1934    2.6091    1.0029 H         1 UNK         0.0000 
     58 H58         3.2295    0.8732    1.1996 H         1 UNK         0.0000 
     59 H59         1.7744    1.8750   -3.5027 H         1 UNK         0.0000 
     60 H60        -2.2112   -4.2516   -3.9431 H         1 UNK         0.0000 
     61 H61        -1.5604   -3.0857   -6.0383 H         1 UNK         0.0000 
     62 H62        -0.1614   -1.0997   -5.9515 H         1 UNK         0.0000 
     63 H63        -1.3193    2.6091   -2.7413 H         1 UNK         0.0000 
     64 H64        -0.0428    3.7752   -2.4572 H         1 UNK         0.0000 
     65 H65        -0.7694    5.0086    1.9057 H         1 UNK         0.0000 
     66 H66        -1.5467    3.9695    3.0550 H         1 UNK         0.0000 
     67 H67        -2.4291    1.5983    0.7671 H         1 UNK         0.0000 
     68 H68        -5.9588   -2.9545    0.9105 H         1 UNK         0.0000 
     69 H69        -7.2753   -1.2711    2.1763 H         1 UNK         0.0000 
     70 H70        -6.4423    1.0164    2.3971 H         1 UNK         0.0000 
@<TRIPOS>BOND
     1    1    6 nc   
     2    1    8 nc   
     3    1   26 nc   
     4    1   28 nc   
     5    1   47 nc   
     6    1   49 nc   
     7    2    3 ar   
     8    2   53 1    
     9    2    9 ar   
    10    3   54 1    
    11    3    4 ar   
    12    4   55 1    
    13    4    5 ar   
    14    5    6 1    
    15    5    7 ar   
    16    7    9 ar   
    17    7    8 1    
    18    9   10 1    
    19   10   11 2    
    20   10   12 am   BACKBONE|DICT|INTERRES
    21   12   13 1    
    22   12   56 1    
    23   13   40 1    
    24   13   14 1    
    25   13   15 1    
    26   15   58 1    
    27   15   16 1    
    28   15   57 1    
    29   16   17 1    
    30   17   18 2    
    31   17   19 1    
    32   19   20 1    
    33   19   21 1    
    34   19   32 1    
    35   21   22 am   BACKBONE|DICT|INTERRES
    36   21   59 1    
    37   22   24 1    
    38   22   23 2    
    39   24   25 ar   
    40   24   31 ar   
    41   25   26 1    
    42   25   27 ar   
    43   27   28 1    
    44   27   29 ar   
    45   29   30 ar   
    46   29   60 1    
    47   30   31 ar   
    48   30   61 1    
    49   31   62 1    
    50   32   33 1    
    51   32   63 1    
    52   32   64 1    
    53   33   34 1    
    54   34   36 1    
    55   34   35 2    
    56   36   42 1    
    57   36   37 1    
    58   36   38 1    
    59   38   66 1    
    60   38   39 1    
    61   38   65 1    
    62   39   40 1    
    63   40   41 2    
    64   42   43 am   BACKBONE|DICT|INTERRES
    65   42   67 1    
    66   43   44 2    
    67   43   45 1    
    68   45   52 ar   
    69   45   46 ar   
    70   46   47 1    
    71   46   48 ar   
    72   48   50 ar   
    73   48   49 1    
    74   50   51 ar   
    75   50   68 1    
    76   51   52 ar   
    77   51   69 1    
    78   52   70 1    
@<TRIPOS>SUBSTRUCTURE
     1 UNK         1 GROUP             0       ****    0 ROOT    
