@<TRIPOS>MOLECULE
072_c1
100   108    1
SMALL
USER_CHARGES


@<TRIPOS>ATOM
      1 Fe1        -1.1904   -5.6058   -0.5988 Fe        1 UNK         0.0000 
      2 C2          2.6299   -1.2928    0.0424 C.ar      1 UNK         0.0000 
      3 C3          3.5417   -2.2768    0.3929 C.ar      1 UNK         0.0000 
      4 C4          3.1067   -3.5872    0.5551 C.ar      1 UNK         0.0000 
      5 C5          1.7534   -3.9237    0.4483 C.ar      1 UNK         0.0000 
      6 O6          1.4846   -5.1731    0.5331 O.co2     1 UNK         0.0000 
      7 C7          0.8047   -2.8900    0.2121 C.ar      1 UNK         0.0000 
      8 O8         -0.4572   -3.0706    0.2498 O.co2     1 UNK         0.0000 
      9 C9          1.2591   -1.5877   -0.0898 C.ar      1 UNK         0.0000 
     10 C10         0.3290   -0.5133   -0.6359 C.2       1 UNK         0.0000 
     11 O11         0.7731    0.3108   -1.4198 O.2       1 UNK         0.0000 
     12 N12        -0.9471   -0.4623   -0.1965 N.am      1 UNK         0.0000 
     13 C13        -1.9173    0.5753   -0.5518 C.3       1 UNK         0.0000 
     14 C14        -3.1620    0.7033    0.3550 C.2       1 UNK         0.0000 
     15 O15        -3.6197   -0.2633    0.9432 O.2       1 UNK         0.0000 
     16 N16        -3.8365    1.8740    0.4849 N.am      1 UNK         0.0000 
     17 C17        -3.4325    3.3069    0.2928 C.3       1 UNK         0.0000 
     18 H18        -4.3670    3.8650    0.2566 H         1 UNK         0.0000 
     19 C19        -2.6406    3.8777    1.5179 C.3       1 UNK         0.0000 
     20 H20        -2.2656    4.8790    1.2969 H         1 UNK         0.0000 
     21 C21        -3.4877    3.9568    2.8061 C.3       1 UNK         0.0000 
     22 O22        -1.5757    2.9632    1.7167 O.3       1 UNK         0.0000 
     23 C23        -0.4347    3.2754    2.3353 C.2       1 UNK         0.0000 
     24 O24        -0.1764    4.3846    2.8140 O.2       1 UNK         0.0000 
     25 C25         0.5973    2.1412    2.1988 C.3       1 UNK         0.0000 
     26 H26         1.2649    2.2213    3.0603 H         1 UNK         0.0000 
     27 N27         0.0208    0.7412    2.3540 N.am      1 UNK         0.0000 
     28 C28        -0.7544    0.3516    3.4030 C.2       1 UNK         0.0000 
     29 O29        -1.0500    1.1998    4.2516 O.2       1 UNK         0.0000 
     30 C30        -1.2222   -1.0925    3.7471 C.3       1 UNK         0.0000 
     31 N31        -1.1589   -2.2938    2.8746 N.am      1 UNK         0.0000 
     32 C32        -2.0168   -3.3300    3.0778 C.2       1 UNK         0.0000 
     33 O33        -3.0074   -3.2119    3.8169 O.2       1 UNK         0.0000 
     34 C34        -1.5475   -4.7251    2.6581 C.ar      1 UNK         0.0000 
     35 C35        -2.2600   -5.6359    1.8159 C.ar      1 UNK         0.0000 
     36 O36        -3.3590   -5.2537    1.2708 O.co2     1 UNK         0.0000 
     37 C37        -1.7236   -6.9481    1.6042 C.ar      1 UNK         0.0000 
     38 O38        -2.2336   -7.8782    0.8747 O.co2     1 UNK         0.0000 
     39 C39        -0.5339   -7.3213    2.2292 C.ar      1 UNK         0.0000 
     40 C40         0.1465   -6.4361    3.0562 C.ar      1 UNK         0.0000 
     41 C41        -0.3516   -5.1546    3.2570 C.ar      1 UNK         0.0000 
     42 C42         1.4891    2.4552    0.9280 C.3       1 UNK         0.0000 
     43 H43         2.0135    1.5403    0.6557 H         1 UNK         0.0000 
     44 C44         2.5718    3.5189    1.2868 C.3       1 UNK         0.0000 
     45 O45         0.6966    2.8890   -0.2110 O.3       1 UNK         0.0000 
     46 C46         1.2192    3.1444   -1.4569 C.2       1 UNK         0.0000 
     47 O47         2.4243    3.1346   -1.7121 O.2       1 UNK         0.0000 
     48 C48         0.1705    3.4837   -2.5292 C.3       1 UNK         0.0000 
     49 H49         0.7456    3.8427   -3.3867 H         1 UNK         0.0000 
     50 C50        -0.7625    4.6638   -2.1013 C.3       1 UNK         0.0000 
     51 H51        -0.1073    5.4383   -1.7042 H         1 UNK         0.0000 
     52 C52        -1.4749    5.3293   -3.2990 C.3       1 UNK         0.0000 
     53 O53        -1.6574    4.3730   -1.0035 O.3       1 UNK         0.0000 
     54 C54        -2.7743    3.5828   -1.0710 C.2       1 UNK         0.0000 
     55 O55        -3.2035    3.0903   -2.1131 O.2       1 UNK         0.0000 
     56 N56        -0.5646    2.2708   -2.9503 N.am      1 UNK         0.0000 
     57 C57        -0.4204    1.5631   -4.0841 C.2       1 UNK         0.0000 
     58 O58         0.4276    1.8490   -4.9294 O.2       1 UNK         0.0000 
     59 C59        -1.4256    0.4238   -4.3276 C.3       1 UNK         0.0000 
     60 N60        -0.8353   -0.8896   -4.0639 N.am      1 UNK         0.0000 
     61 C61        -1.5063   -2.0477   -4.2219 C.2       1 UNK         0.0000 
     62 O62        -2.6946   -2.0245   -4.5694 O.2       1 UNK         0.0000 
     63 C63        -0.6720   -3.3307   -4.0697 C.ar      1 UNK         0.0000 
     64 C64        -1.1417   -4.5490   -3.4768 C.ar      1 UNK         0.0000 
     65 O65        -2.3362   -4.6059   -3.0091 O.co2     1 UNK         0.0000 
     66 C66        -0.2599   -5.6759   -3.4047 C.ar      1 UNK         0.0000 
     67 O67        -0.5420   -6.8327   -2.9168 O.co2     1 UNK         0.0000 
     68 C68         1.0401   -5.5570   -3.9015 C.ar      1 UNK         0.0000 
     69 C69         1.4944   -4.3799   -4.4842 C.ar      1 UNK         0.0000 
     70 C70         0.6437   -3.2880   -4.5744 C.ar      1 UNK         0.0000 
     71 H71         2.9855   -0.2909   -0.1559 H         1 UNK         0.0000 
     72 H72         4.5878   -2.0458    0.4985 H         1 UNK         0.0000 
     73 H73         3.8229   -4.3738    0.7572 H         1 UNK         0.0000 
     74 H74        -1.2522   -1.3718    0.1696 H         1 UNK         0.0000 
     75 H75        -2.2702    0.3825   -1.5608 H         1 UNK         0.0000 
     76 H76        -1.3700    1.5065   -0.5228 H         1 UNK         0.0000 
     77 H77        -4.6050    1.7445    1.1274 H         1 UNK         0.0000 
     78 H78        -2.9013    4.3618    3.6301 H         1 UNK         0.0000 
     79 H79        -3.8347    2.9692    3.1155 H         1 UNK         0.0000 
     80 H80        -4.3576    4.5977    2.6752 H         1 UNK         0.0000 
     81 H81         0.3402    0.0033    1.7337 H         1 UNK         0.0000 
     82 H82        -0.5996   -1.3696    4.5995 H         1 UNK         0.0000 
     83 H83        -2.2261   -0.9780    4.1582 H         1 UNK         0.0000 
     84 H84        -0.5222   -2.4096    2.0779 H         1 UNK         0.0000 
     85 H85        -0.1172   -8.3042    2.0704 H         1 UNK         0.0000 
     86 H86         1.0625   -6.7372    3.5402 H         1 UNK         0.0000 
     87 H87         0.1992   -4.4934    3.9144 H         1 UNK         0.0000 
     88 H88         2.1338    4.5059    1.4328 H         1 UNK         0.0000 
     89 H89         3.1011    3.2546    2.2009 H         1 UNK         0.0000 
     90 H90         3.3350    3.6103    0.5167 H         1 UNK         0.0000 
     91 H91        -0.7495    5.7084   -4.0183 H         1 UNK         0.0000 
     92 H92        -2.0945    6.1662   -2.9807 H         1 UNK         0.0000 
     93 H93        -2.1107    4.6223   -3.8371 H         1 UNK         0.0000 
     94 H94        -1.2683    1.9287   -2.3155 H         1 UNK         0.0000 
     95 H95        -2.3358    0.5616   -3.7420 H         1 UNK         0.0000 
     96 H96        -1.7344    0.4656   -5.3753 H         1 UNK         0.0000 
     97 H97         0.0970   -0.9313   -3.6855 H         1 UNK         0.0000 
     98 H98         1.7178   -6.3972   -3.8288 H         1 UNK         0.0000 
     99 H99         2.4940   -4.3241   -4.8862 H         1 UNK         0.0000 
    100 H100        1.0149   -2.4013   -5.0725 H         1 UNK         0.0000 
@<TRIPOS>BOND
     1    1    6 nc   
     2    1    8 nc   
     3    1   36 nc   
     4    1   38 nc   
     5    1   65 nc   
     6    1   67 nc   
     7    2   71 1    
     8    2    3 ar   
     9    2    9 ar   
    10    3   72 1    
    11    3    4 ar   
    12    4   73 1    
    13    4    5 ar   
    14    5    6 1    
    15    5    7 ar   
    16    7    9 ar   
    17    7    8 1    
    18    9   10 1    
    19   10   12 am   BACKBONE|DICT|INTERRES
    20   10   11 2    
    21   12   74 1    
    22   12   13 1    
    23   13   76 1    
    24   13   14 1    
    25   13   75 1    
    26   14   15 2    
    27   14   16 am   BACKBONE|DICT|INTERRES
    28   16   77 1    
    29   16   17 1    
    30   17   18 1    
    31   17   19 1    
    32   17   54 1    
    33   19   20 1    
    34   19   22 1    
    35   19   21 1    
    36   21   79 1    
    37   21   78 1    
    38   21   80 1    
    39   22   23 1    
    40   23   24 2    
    41   23   25 1    
    42   25   27 1    
    43   25   26 1    
    44   25   42 1    
    45   27   81 1    
    46   27   28 am   BACKBONE|DICT|INTERRES
    47   28   30 1    
    48   28   29 2    
    49   30   83 1    
    50   30   82 1    
    51   30   31 1    
    52   31   84 1    
    53   31   32 am   BACKBONE|DICT|INTERRES
    54   32   33 2    
    55   32   34 1    
    56   34   41 ar   
    57   34   35 ar   
    58   35   36 1    
    59   35   37 ar   
    60   37   39 ar   
    61   37   38 1    
    62   39   40 ar   
    63   39   85 1    
    64   40   41 ar   
    65   40   86 1    
    66   41   87 1    
    67   42   43 1    
    68   42   44 1    
    69   42   45 1    
    70   44   88 1    
    71   44   89 1    
    72   44   90 1    
    73   45   46 1    
    74   46   47 2    
    75   46   48 1    
    76   48   49 1    
    77   48   50 1    
    78   48   56 1    
    79   50   51 1    
    80   50   53 1    
    81   50   52 1    
    82   52   92 1    
    83   52   91 1    
    84   52   93 1    
    85   53   54 1    
    86   54   55 2    
    87   56   94 1    
    88   56   57 am   BACKBONE|DICT|INTERRES
    89   57   58 2    
    90   57   59 1    
    91   59   95 1    
    92   59   60 1    
    93   59   96 1    
    94   60   61 am   BACKBONE|DICT|INTERRES
    95   60   97 1    
    96   61   62 2    
    97   61   63 1    
    98   63   64 ar   
    99   63   70 ar   
   100   64   66 ar   
   101   64   65 1    
   102   66   67 1    
   103   66   68 ar   
   104   68   98 1    
   105   68   69 ar   
   106   69   70 ar   
   107   69   99 1    
   108   70  100 1    
@<TRIPOS>SUBSTRUCTURE
     1 UNK         1 GROUP             0       ****    0 ROOT    
