@<TRIPOS>MOLECULE
093_c1
80   84    1
SMALL
USER_CHARGES


@<TRIPOS>ATOM
      1 Fe1        -0.1460    0.0867   -0.0947 Fe        1 UNK         0.0000 
      2 O2         -1.4632   -0.3186    1.1238 O.co2     1 UNK         0.0000 
      3 C3         -1.3643   -1.0776    2.1013 C.2       1 UNK         0.0000 
      4 C4         -2.5223   -1.8991    2.6592 C.3       1 UNK         0.0000 
      5 N5         -0.0730   -1.2520    2.4550 N.am      1 UNK         0.0000 
      6 O6          0.8744   -0.6605    1.7258 O.co2     1 UNK         0.0000 
      7 C7          0.4009   -2.0508    3.5881 C.3       1 UNK         0.0000 
      8 C8          1.1680   -3.3298    3.1861 C.3       1 UNK         0.0000 
      9 C9          0.2876   -4.5830    2.9264 C.3       1 UNK         0.0000 
     10 C10         0.5769   -5.3463    1.6214 C.3       1 UNK         0.0000 
     11 N11        -0.1968   -4.8885    0.4605 N.am      1 UNK         0.0000 
     12 C12         0.2980   -4.8571   -0.7876 C.2       1 UNK         0.0000 
     13 O13         1.4797   -5.0743   -1.0390 O.2       1 UNK         0.0000 
     14 C14        -0.6890   -4.6570   -1.9547 C.3       1 UNK         0.0000 
     15 C15        -1.3636   -3.2729   -2.1717 C.3       1 UNK         0.0000 
     16 C16        -0.5365   -2.0307   -1.8347 C.2       1 UNK         0.0000 
     17 O17        -0.6872   -1.3953   -0.7928 O.co2     1 UNK         0.0000 
     18 N18         0.3770   -1.3998   -2.5954 N.am      1 UNK         0.0000 
     19 O19         0.9345   -0.3015   -2.0561 O.co2     1 UNK         0.0000 
     20 C20         0.7443   -1.7439   -3.9727 C.3       1 UNK         0.0000 
     21 C21         0.4894   -0.6040   -4.9823 C.3       1 UNK         0.0000 
     22 C22        -1.0017   -0.2176   -5.1736 C.3       1 UNK         0.0000 
     23 C23        -1.1955    1.1482   -5.8708 C.3       1 UNK         0.0000 
     24 N24        -1.6961    2.1967   -4.9725 N.am      1 UNK         0.0000 
     25 C25        -0.9494    2.8490   -4.0644 C.2       1 UNK         0.0000 
     26 O26         0.2541    2.6814   -3.9390 O.2       1 UNK         0.0000 
     27 C27        -1.6674    3.8646   -3.1590 C.3       1 UNK         0.0000 
     28 C28        -2.1494    3.3614   -1.7597 C.3       1 UNK         0.0000 
     29 C29        -1.1853    2.4826   -0.9446 C.2       1 UNK         0.0000 
     30 O30        -1.2210    1.2468   -0.9231 O.co2     1 UNK         0.0000 
     31 N31        -0.1790    2.9032   -0.1408 N.am      1 UNK         0.0000 
     32 O32         0.5639    1.9122    0.3916 O.co2     1 UNK         0.0000 
     33 C33        -0.0143    4.2639    0.3904 C.3       1 UNK         0.0000 
     34 C34         1.0859    5.1052   -0.2885 C.3       1 UNK         0.0000 
     35 C35         1.1866    6.5005    0.3702 C.3       1 UNK         0.0000 
     36 C36         2.2168    7.4261   -0.3072 C.3       1 UNK         0.0000 
     37 C37         2.4259    8.7625    0.4303 C.3       1 UNK         0.0000 
     38 N38         1.1164    9.5622    0.4626 N.4       1 UNK         0.0000 
     39 H39         0.3838    9.0202    0.8972 H         1 UNK         0.0000 
     40 H40         1.2439   10.4081    0.9983 H         1 UNK         0.0000 
     41 H41         0.8236    9.8240   -0.4690 H         1 UNK         0.0000 
     42 H42        -3.4516   -1.6862    2.1391 H         1 UNK         0.0000 
     43 H43        -2.3468   -2.9681    2.5290 H         1 UNK         0.0000 
     44 H44        -2.6778   -1.6942    3.7140 H         1 UNK         0.0000 
     45 H45        -0.4080   -2.2929    4.2750 H         1 UNK         0.0000 
     46 H46         1.0727   -1.4172    4.1721 H         1 UNK         0.0000 
     47 H47         1.8351   -3.1061    2.3489 H         1 UNK         0.0000 
     48 H48         1.8228   -3.5703    4.0284 H         1 UNK         0.0000 
     49 H49         0.5021   -5.2807    3.7387 H         1 UNK         0.0000 
     50 H50        -0.7792   -4.3793    3.0089 H         1 UNK         0.0000 
     51 H51         0.3551   -6.4075    1.7578 H         1 UNK         0.0000 
     52 H52         1.6547   -5.3238    1.4330 H         1 UNK         0.0000 
     53 H53        -1.1824   -4.7358    0.5891 H         1 UNK         0.0000 
     54 H54        -0.1306   -4.8895   -2.8641 H         1 UNK         0.0000 
     55 H55        -1.4397   -5.4438   -1.9343 H         1 UNK         0.0000 
     56 H56        -1.7803   -3.1998   -3.1768 H         1 UNK         0.0000 
     57 H57        -2.2602   -3.2489   -1.5517 H         1 UNK         0.0000 
     58 H58         0.2053   -2.6261   -4.3041 H         1 UNK         0.0000 
     59 H59         1.7903   -2.0363   -3.9917 H         1 UNK         0.0000 
     60 H60         1.0799    0.2672   -4.6786 H         1 UNK         0.0000 
     61 H61         0.9009   -0.8966   -5.9533 H         1 UNK         0.0000 
     62 H62        -1.5061   -0.9916   -5.7550 H         1 UNK         0.0000 
     63 H63        -1.5097   -0.2126   -4.2069 H         1 UNK         0.0000 
     64 H64        -0.2912    1.4593   -6.3970 H         1 UNK         0.0000 
     65 H65        -1.9399    1.0410   -6.6610 H         1 UNK         0.0000 
     66 H66        -2.6666    2.4492   -5.0567 H         1 UNK         0.0000 
     67 H67        -2.5181    4.2906   -3.7004 H         1 UNK         0.0000 
     68 H68        -1.0103    4.7242   -3.0473 H         1 UNK         0.0000 
     69 H69        -3.0754    2.8076   -1.9158 H         1 UNK         0.0000 
     70 H70        -2.4819    4.2017   -1.1569 H         1 UNK         0.0000 
     71 H71         0.1871    4.1983    1.4649 H         1 UNK         0.0000 
     72 H72        -0.9548    4.8103    0.3315 H         1 UNK         0.0000 
     73 H73         0.8656    5.2138   -1.3529 H         1 UNK         0.0000 
     74 H74         2.0448    4.5844   -0.2143 H         1 UNK         0.0000 
     75 H75         1.4495    6.3653    1.4210 H         1 UNK         0.0000 
     76 H76         0.1994    6.9661    0.3658 H         1 UNK         0.0000 
     77 H77         3.1751    6.9053   -0.3597 H         1 UNK         0.0000 
     78 H78         1.9364    7.6042   -1.3472 H         1 UNK         0.0000 
     79 H79         3.1537    9.4176   -0.0559 H         1 UNK         0.0000 
     80 H80         2.7032    8.6202    1.4766 H         1 UNK         0.0000 
@<TRIPOS>BOND
     1    1    2 nc   
     2    1    6 nc   
     3    1   17 nc   
     4    1   19 nc   
     5    1   30 nc   
     6    1   32 nc   
     7    2    3 2    
     8    3    4 1    
     9    3    5 am   BACKBONE|DICT|INTERRES
    10    4   44 1    
    11    4   42 1    
    12    4   43 1    
    13    5    7 1    
    14    5    6 1    
    15    7   46 1    
    16    7   45 1    
    17    7    8 1    
    18    8   48 1    
    19    8    9 1    
    20    8   47 1    
    21    9   50 1    
    22    9   49 1    
    23    9   10 1    
    24   10   51 1    
    25   10   11 1    
    26   10   52 1    
    27   11   53 1    
    28   11   12 am   BACKBONE|DICT|INTERRES
    29   12   13 2    
    30   12   14 1    
    31   14   15 1    
    32   14   54 1    
    33   14   55 1    
    34   15   16 1    
    35   15   57 1    
    36   15   56 1    
    37   16   17 2    
    38   16   18 am   BACKBONE|DICT|INTERRES
    39   18   19 1    
    40   18   20 1    
    41   20   59 1    
    42   20   21 1    
    43   20   58 1    
    44   21   60 1    
    45   21   22 1    
    46   21   61 1    
    47   22   63 1    
    48   22   23 1    
    49   22   62 1    
    50   23   24 1    
    51   23   64 1    
    52   23   65 1    
    53   24   25 am   BACKBONE|DICT|INTERRES
    54   24   66 1    
    55   25   26 2    
    56   25   27 1    
    57   27   68 1    
    58   27   28 1    
    59   27   67 1    
    60   28   70 1    
    61   28   29 1    
    62   28   69 1    
    63   29   30 2    
    64   29   31 am   BACKBONE|DICT|INTERRES
    65   31   32 1    
    66   31   33 1    
    67   33   71 1    
    68   33   34 1    
    69   33   72 1    
    70   34   74 1    
    71   34   35 1    
    72   34   73 1    
    73   35   75 1    
    74   35   36 1    
    75   35   76 1    
    76   36   77 1    
    77   36   37 1    
    78   36   78 1    
    79   37   38 1    
    80   37   80 1    
    81   37   79 1    
    82   38   40 1    
    83   38   39 1    
    84   38   41 1    
@<TRIPOS>SUBSTRUCTURE
     1 UNK         1 GROUP             0       ****    0 ROOT    
