@<TRIPOS>MOLECULE
054_I_c1
148   152    1
SMALL
USER_CHARGES


@<TRIPOS>ATOM
      1 Fe1        -1.4262   -0.1043   -4.2482 Fe        1 UNK         0.0000 
      2 C2         17.0702   -3.0863   -0.9155 C.3       1 UNK         0.0000 
      3 C3         15.6213   -3.5430   -0.7041 C.3       1 UNK         0.0000 
      4 C4         14.5980   -2.4256   -0.9780 C.3       1 UNK         0.0000 
      5 C5         13.1540   -2.9101   -0.7842 C.3       1 UNK         0.0000 
      6 C6         12.0889   -1.8276   -1.0447 C.3       1 UNK         0.0000 
      7 C7         10.6791   -2.4121   -0.8731 C.3       1 UNK         0.0000 
      8 C8          9.5099   -1.4305   -1.0878 C.3       1 UNK         0.0000 
      9 C9          8.1878   -2.1959   -0.9134 C.3       1 UNK         0.0000 
     10 C10         6.8794   -1.3753   -0.9853 C.3       1 UNK         0.0000 
     11 C11         5.6370   -2.2874   -0.8359 C.3       1 UNK         0.0000 
     12 H12         5.6717   -3.0302   -1.6374 H         1 UNK         0.0000 
     13 O13         5.7340   -2.9706    0.4021 O.3       1 UNK         0.0000 
     14 C14         4.2743   -1.5584   -0.9030 C.3       1 UNK         0.0000 
     15 C15         3.0540   -2.5033   -0.8082 C.2       1 UNK         0.0000 
     16 O16         3.2384   -3.7211   -0.7586 O.2       1 UNK         0.0000 
     17 N17         1.7858   -2.0718   -0.7920 N.am      1 UNK         0.0000 
     18 C18         1.1573   -0.7452   -0.7557 C.3       1 UNK         0.0000 
     19 H19         0.1210   -1.0706   -0.6678 H         1 UNK         0.0000 
     20 C20         1.1352    0.0311   -2.1346 C.3       1 UNK         0.0000 
     21 H21         2.1507    0.3960   -2.2978 H         1 UNK         0.0000 
     22 O22         0.6239   -0.6953   -3.2439 O.co2     1 UNK         0.0000 
     23 C23         0.2179    1.3232   -2.0844 C.2       1 UNK         0.0000 
     24 O24        -0.7114    1.1930   -2.9415 O.co2     1 UNK         0.0000 
     25 O25         0.3329    2.1906   -1.1977 O.co2     1 UNK         0.0000 
     26 C26         1.3807    0.0119    0.5867 C.2       1 UNK         0.0000 
     27 O27         2.5138    0.2777    0.9842 O.2       1 UNK         0.0000 
     28 N28         0.2760    0.2949    1.2982 N.am      1 UNK         0.0000 
     29 C29         0.2408    0.9199    2.6159 C.3       1 UNK         0.0000 
     30 H30         1.2548    1.0195    3.0021 H         1 UNK         0.0000 
     31 C31        -0.3112    2.3602    2.4917 C.3       1 UNK         0.0000 
     32 O32         0.7422    3.2255    2.1028 O.3       1 UNK         0.0000 
     33 C33        -0.3825   -0.0715    3.6396 C.2       1 UNK         0.0000 
     34 O34         0.3228   -1.0059    4.0217 O.2       1 UNK         0.0000 
     35 N35        -1.6429   -0.0278    4.1011 N.am      1 UNK         0.0000 
     36 C36        -2.7988    0.8393    3.8755 C.3       1 UNK         0.0000 
     37 H37        -2.6607    1.5446    3.0609 H         1 UNK         0.0000 
     38 C38        -3.1224    1.5676    5.2043 C.3       1 UNK         0.0000 
     39 O39        -2.0636    2.4092    5.6263 O.3       1 UNK         0.0000 
     40 C40        -4.0079   -0.0531    3.5431 C.2       1 UNK         0.0000 
     41 O41        -4.0211   -1.2267    3.9209 O.2       1 UNK         0.0000 
     42 N42        -5.0366    0.5283    2.9152 N.am      1 UNK         0.0000 
     43 C43        -6.2668   -0.1568    2.5424 C.3       1 UNK         0.0000 
     44 H44        -6.1436   -1.2385    2.6372 H         1 UNK         0.0000 
     45 C45        -7.4199    0.2745    3.4788 C.3       1 UNK         0.0000 
     46 C46        -7.7875    1.7754    3.4573 C.3       1 UNK         0.0000 
     47 C47        -8.8078    2.1216    4.5323 C.2       1 UNK         0.0000 
     48 O48        -8.4990    2.8075    5.4974 O.2       1 UNK         0.0000 
     49 N49       -10.0370    1.6393    4.3998 N.am      1 UNK         0.0000 
     50 C50        -6.5412    0.1615    1.0679 C.2       1 UNK         0.0000 
     51 O51        -6.3052    1.2889    0.6504 O.2       1 UNK         0.0000 
     52 N52        -7.0358   -0.8434    0.3413 N.am      1 UNK         0.0000 
     53 C53        -7.2442   -0.9182   -1.1026 C.3       1 UNK         0.0000 
     54 H54        -7.4679   -1.9853   -1.1677 H         1 UNK         0.0000 
     55 C55        -5.9798   -0.8749   -1.9837 C.3       1 UNK         0.0000 
     56 C56        -6.2065   -1.3977   -3.4294 C.3       1 UNK         0.0000 
     57 C57        -5.1897   -2.4615   -3.9127 C.3       1 UNK         0.0000 
     58 N58        -3.7841   -2.0419   -3.9751 N.am      1 UNK         0.0000 
     59 O59        -3.5354   -0.7426   -3.9899 O.co2     1 UNK         0.0000 
     60 C60        -2.6976   -2.8256   -4.1410 C.2       1 UNK         0.0000 
     61 O61        -1.6629   -2.1606   -4.2748 O.co2     1 UNK         0.0000 
     62 C62        -2.7331   -4.3469   -4.2009 C.3       1 UNK         0.0000 
     63 C63        -8.5712   -0.3168   -1.6438 C.2       1 UNK         0.0000 
     64 O64        -9.5475   -1.0598   -1.6107 O.2       1 UNK         0.0000 
     65 N65        -8.7448    0.9157   -2.1514 N.am      1 UNK         0.0000 
     66 C66        -7.9353    2.1398   -2.1315 C.3       1 UNK         0.0000 
     67 H67        -7.3874    2.1866   -1.1994 H         1 UNK         0.0000 
     68 C68        -8.9212    3.3402   -2.1095 C.3       1 UNK         0.0000 
     69 O69        -8.2973    4.6112   -2.0423 O.3       1 UNK         0.0000 
     70 C70        -6.8893    2.2528   -3.2542 C.2       1 UNK         0.0000 
     71 O71        -5.7139    2.3554   -2.9299 O.2       1 UNK         0.0000 
     72 N72        -7.3162    2.2649   -4.5287 N.am      1 UNK         0.0000 
     73 C73        -6.4825    2.5991   -5.6973 C.3       1 UNK         0.0000 
     74 H74        -7.1584    2.5348   -6.5462 H         1 UNK         0.0000 
     75 C75        -6.0186    4.0819   -5.6961 C.2       1 UNK         0.0000 
     76 O76        -4.8924    4.2733   -4.9703 O.3       1 UNK         0.0000 
     77 O77        -6.6092    4.9689   -6.2756 O.2       1 UNK         0.0000 
     78 C78        -5.3524    1.5713   -5.9877 C.3       1 UNK         0.0000 
     79 C79        -4.5222    1.8047   -7.2827 C.3       1 UNK         0.0000 
     80 C80        -3.0745    2.3413   -7.1254 C.3       1 UNK         0.0000 
     81 N81        -2.1626    1.4406   -6.4060 N.am      1 UNK         0.0000 
     82 O82        -2.1636    1.4895   -5.0859 O.co2     1 UNK         0.0000 
     83 C83        -1.4563    0.4243   -6.9190 C.2       1 UNK         0.0000 
     84 O84        -0.9548   -0.2700   -6.0192 O.co2     1 UNK         0.0000 
     85 C85        -1.4048    0.0990   -8.4020 C.3       1 UNK         0.0000 
     86 H86        17.7693   -3.8981   -0.7103 H         1 UNK         0.0000 
     87 H87        17.3246   -2.2562   -0.2552 H         1 UNK         0.0000 
     88 H88        17.2363   -2.7594   -1.9428 H         1 UNK         0.0000 
     89 H89        15.5026   -3.9081    0.3182 H         1 UNK         0.0000 
     90 H90        15.4150   -4.3980   -1.3512 H         1 UNK         0.0000 
     91 H91        14.7922   -1.5784   -0.3179 H         1 UNK         0.0000 
     92 H92        14.7231   -2.0543   -1.9966 H         1 UNK         0.0000 
     93 H93        13.0367   -3.2939    0.2315 H         1 UNK         0.0000 
     94 H94        12.9732   -3.7607   -1.4447 H         1 UNK         0.0000 
     95 H95        12.2325   -0.9911   -0.3584 H         1 UNK         0.0000 
     96 H96        12.2042   -1.4249   -2.0524 H         1 UNK         0.0000 
     97 H97        10.5635   -3.2524   -1.5604 H         1 UNK         0.0000 
     98 H98        10.5996   -2.8399    0.1285 H         1 UNK         0.0000 
     99 H99         9.5649   -0.6090   -0.3715 H         1 UNK         0.0000 
    100 H100        9.5580   -0.9851   -2.0829 H         1 UNK         0.0000 
    101 H101        8.2213   -2.7065    0.0513 H         1 UNK         0.0000 
    102 H102        8.1366   -2.9887   -1.6614 H         1 UNK         0.0000 
    103 H103        6.8700   -0.6141   -0.2033 H         1 UNK         0.0000 
    104 H104        6.8353   -0.8415   -1.9353 H         1 UNK         0.0000 
    105 H105        4.9538   -3.5404    0.4610 H         1 UNK         0.0000 
    106 H106        4.2622   -0.8261   -0.1045 H         1 UNK         0.0000 
    107 H107        4.2084   -1.0171   -1.8453 H         1 UNK         0.0000 
    108 H108        1.1027   -2.8032   -0.8280 H         1 UNK         0.0000 
    109 H109       -0.6114    0.1033    0.8703 H         1 UNK         0.0000 
    110 H110       -1.1047    2.4348    1.7443 H         1 UNK         0.0000 
    111 H111       -0.7030    2.7010    3.4495 H         1 UNK         0.0000 
    112 H112        0.9770    2.9548    1.1924 H         1 UNK         0.0000 
    113 H113       -1.8768   -0.8112    4.6876 H         1 UNK         0.0000 
    114 H114       -3.3442    0.8459    5.9940 H         1 UNK         0.0000 
    115 H115       -4.0197    2.1797    5.0850 H         1 UNK         0.0000 
    116 H116       -2.2448    2.7483    6.5066 H         1 UNK         0.0000 
    117 H117       -4.9602    1.4573    2.5174 H         1 UNK         0.0000 
    118 H118       -7.1701   -0.0121    4.5007 H         1 UNK         0.0000 
    119 H119       -8.3084   -0.3080    3.2306 H         1 UNK         0.0000 
    120 H120       -6.9044    2.3884    3.6394 H         1 UNK         0.0000 
    121 H121       -8.1769    2.0836    2.4865 H         1 UNK         0.0000 
    122 H122      -10.3084    1.0710    3.6133 H         1 UNK         0.0000 
    123 H123      -10.7038    1.8655    5.1198 H         1 UNK         0.0000 
    124 H124       -7.1663   -1.7299    0.8025 H         1 UNK         0.0000 
    125 H125       -5.5156    0.1117   -1.9831 H         1 UNK         0.0000 
    126 H126       -5.2198   -1.4985   -1.5111 H         1 UNK         0.0000 
    127 H127       -7.1961   -1.8458   -3.5331 H         1 UNK         0.0000 
    128 H128       -6.2090   -0.5595   -4.1221 H         1 UNK         0.0000 
    129 H129       -5.2545   -3.3247   -3.2569 H         1 UNK         0.0000 
    130 H130       -5.4967   -2.8049   -4.8983 H         1 UNK         0.0000 
    131 H131       -2.4029   -4.6745   -5.1855 H         1 UNK         0.0000 
    132 H132       -2.0607   -4.7609   -3.4510 H         1 UNK         0.0000 
    133 H133       -3.7313   -4.7430   -4.0244 H         1 UNK         0.0000 
    134 H134       -9.6804    1.0591   -2.4905 H         1 UNK         0.0000 
    135 H135       -9.5828    3.2539   -1.2464 H         1 UNK         0.0000 
    136 H136       -9.5592    3.3144   -2.9936 H         1 UNK         0.0000 
    137 H137       -8.9359    5.3076   -2.2237 H         1 UNK         0.0000 
    138 H138       -8.2999    2.1846   -4.7076 H         1 UNK         0.0000 
    139 H139       -5.8015    0.5827   -6.0672 H         1 UNK         0.0000 
    140 H140       -4.7048    1.4919   -5.1181 H         1 UNK         0.0000 
    141 H141       -5.0597    2.4866   -7.9421 H         1 UNK         0.0000 
    142 H142       -4.4774    0.8678   -7.8395 H         1 UNK         0.0000 
    143 H143       -3.0823    3.2891   -6.5879 H         1 UNK         0.0000 
    144 H144       -2.6817    2.5849   -8.1130 H         1 UNK         0.0000 
    145 H145       -0.6912   -0.6993   -8.5853 H         1 UNK         0.0000 
    146 H146       -1.1171    0.9722   -8.9804 H         1 UNK         0.0000 
    147 H147       -2.3887   -0.2323   -8.7292 H         1 UNK         0.0000 
    148 H148       -4.6829    5.2044   -4.9324 H         1 UNK         0.0000 
@<TRIPOS>BOND
     1    1   22 nc   
     2    1   24 nc   
     3    1   59 nc   
     4    1   61 nc   
     5    1   82 nc   
     6    1   84 nc   
     7    2   86 1    
     8    2    3 1    
     9    2   87 1    
    10    2   88 1    
    11    3   89 1    
    12    3    4 1    
    13    3   90 1    
    14    4    5 1    
    15    4   91 1    
    16    4   92 1    
    17    5   93 1    
    18    5    6 1    
    19    5   94 1    
    20    6    7 1    
    21    6   95 1    
    22    6   96 1    
    23    7   98 1    
    24    7    8 1    
    25    7   97 1    
    26    8    9 1    
    27    8   99 1    
    28    8  100 1    
    29    9  101 1    
    30    9   10 1    
    31    9  102 1    
    32   10   11 1    
    33   10  103 1    
    34   10  104 1    
    35   11   12 1    
    36   11   13 1    
    37   11   14 1    
    38   13  105 1    
    39   14   15 1    
    40   14  106 1    
    41   14  107 1    
    42   15   17 am   BACKBONE|DICT|INTERRES
    43   15   16 2    
    44   17  108 1    
    45   17   18 1    
    46   18   19 1    
    47   18   26 1    
    48   18   20 1    
    49   20   21 1    
    50   20   22 1    
    51   20   23 1    
    52   23   25 2    
    53   23   24 1    
    54   26   27 2    
    55   26   28 am   BACKBONE|DICT|INTERRES
    56   28   29 1    
    57   28  109 1    
    58   29   30 1    
    59   29   33 1    
    60   29   31 1    
    61   31  111 1    
    62   31   32 1    
    63   31  110 1    
    64   32  112 1    
    65   33   34 2    
    66   33   35 am   BACKBONE|DICT|INTERRES
    67   35  113 1    
    68   35   36 1    
    69   36   37 1    
    70   36   38 1    
    71   36   40 1    
    72   38   39 1    
    73   38  114 1    
    74   38  115 1    
    75   39  116 1    
    76   40   41 2    
    77   40   42 am   BACKBONE|DICT|INTERRES
    78   42   43 1    
    79   42  117 1    
    80   43   44 1    
    81   43   45 1    
    82   43   50 1    
    83   45  118 1    
    84   45   46 1    
    85   45  119 1    
    86   46  120 1    
    87   46   47 1    
    88   46  121 1    
    89   47   48 2    
    90   47   49 am   BACKBONE|DICT|INTERRES
    91   49  123 1    
    92   49  122 1    
    93   50   51 2    
    94   50   52 am   BACKBONE|DICT|INTERRES
    95   52  124 1    
    96   52   53 1    
    97   53   54 1    
    98   53   55 1    
    99   53   63 1    
   100   55  125 1    
   101   55  126 1    
   102   55   56 1    
   103   56   57 1    
   104   56  127 1    
   105   56  128 1    
   106   57  129 1    
   107   57   58 1    
   108   57  130 1    
   109   58   59 1    
   110   58   60 am   BACKBONE|DICT|INTERRES
   111   60   62 1    
   112   60   61 2    
   113   62  133 1    
   114   62  132 1    
   115   62  131 1    
   116   63   64 2    
   117   63   65 am   BACKBONE|DICT|INTERRES
   118   65   66 1    
   119   65  134 1    
   120   66   67 1    
   121   66   68 1    
   122   66   70 1    
   123   68   69 1    
   124   68  135 1    
   125   68  136 1    
   126   69  137 1    
   127   70   71 2    
   128   70   72 am   BACKBONE|DICT|INTERRES
   129   72   73 1    
   130   72  138 1    
   131   73   74 1    
   132   73   75 1    
   133   73   78 1    
   134   75   76 1    
   135   75   77 2    
   136   76  148 1    
   137   78  140 1    
   138   78   79 1    
   139   78  139 1    
   140   79   80 1    
   141   79  141 1    
   142   79  142 1    
   143   80   81 1    
   144   80  143 1    
   145   80  144 1    
   146   81   82 1    
   147   81   83 am   BACKBONE|DICT|INTERRES
   148   83   85 1    
   149   83   84 2    
   150   85  145 1    
   151   85  146 1    
   152   85  147 1    
@<TRIPOS>SUBSTRUCTURE
     1 UNK         1 GROUP             0       ****    0 ROOT    
