@<TRIPOS>MOLECULE
040_c1
125   129    1
SMALL
USER_CHARGES


@<TRIPOS>ATOM
      1 O1         13.0158    5.0510   -2.6982 O.co2     1 UNK         0.0000 
      2 C2         12.3475    5.9101   -3.2938 C.2       1 UNK         0.0000 
      3 C3         11.3563    5.4781   -4.3742 C.3       1 UNK         0.0000 
      4 N4         12.5068    7.2124   -2.9336 N.am      1 UNK         0.0000 
      5 O5         13.3821    7.5946   -1.9926 O.co2     1 UNK         0.0000 
      6 C6         11.7059    8.3271   -3.4942 C.3       1 UNK         0.0000 
      7 C7         10.6871    8.9468   -2.5030 C.3       1 UNK         0.0000 
      8 C8         11.2601    9.8294   -1.3569 C.3       1 UNK         0.0000 
      9 C9         11.7048   11.2635   -1.7741 C.3       1 UNK         0.0000 
     10 H10        12.2939   11.1972   -2.6905 H         1 UNK         0.0000 
     11 C11        10.4404   12.1454   -2.0977 C.2       1 UNK         0.0000 
     12 O12         9.6822   12.3652   -1.1240 O.co2     1 UNK         0.0000 
     13 O13        10.2266   12.3502   -3.3127 O.co2     1 UNK         0.0000 
     14 N14        12.5614   11.8578   -0.7250 N.am      1 UNK         0.0000 
     15 C15        13.2216   13.0291   -0.7941 C.2       1 UNK         0.0000 
     16 O16        13.2324   13.7745   -1.7673 O.2       1 UNK         0.0000 
     17 C17        14.1279   13.3574    0.4176 C.3       1 UNK         0.0000 
     18 H18        13.5075   13.3064    1.3113 H         1 UNK         0.0000 
     19 C19        14.8144   14.7587    0.3953 C.3       1 UNK         0.0000 
     20 O20        14.0047   15.8577    0.7991 O.3       1 UNK         0.0000 
     21 N21        15.1545   12.3197    0.5909 N.am      1 UNK         0.0000 
     22 C22        16.0355   11.9019   -0.3280 C.2       1 UNK         0.0000 
     23 O23        16.1825   12.4328   -1.4274 O.2       1 UNK         0.0000 
     24 C24        16.9433   10.7183    0.0563 C.3       1 UNK         0.0000 
     25 H25        17.5321   11.0250    0.9242 H         1 UNK         0.0000 
     26 C26        16.1800    9.4098    0.3880 C.3       1 UNK         0.0000 
     27 C27        15.1882    9.3562    1.5742 C.3       1 UNK         0.0000 
     28 C28        14.8335    7.9246    2.0656 C.3       1 UNK         0.0000 
     29 N29        14.3647    6.9587    1.0398 N.am      1 UNK         0.0000 
     30 O30        15.2902    6.7098    0.1038 O.co2     1 UNK         0.0000 
     31 C31        13.1429    6.3523    1.0090 C.2       1 UNK         0.0000 
     32 O32        12.8766    5.6335    0.0291 O.co2     1 UNK         0.0000 
     33 C33        12.0948    6.5036    2.1129 C.3       1 UNK         0.0000 
     34 N34        17.8524   10.4619   -1.0604 N.am      1 UNK         0.0000 
     35 C35        19.0001    9.7895   -0.9506 C.2       1 UNK         0.0000 
     36 O36        19.4876    9.4883    0.1380 O.2       1 UNK         0.0000 
     37 C37        19.7197    9.3358   -2.2319 C.3       1 UNK         0.0000 
     38 H38        19.2657    9.8203   -3.1038 H         1 UNK         0.0000 
     39 C39        19.6197    7.7755   -2.3638 C.3       1 UNK         0.0000 
     40 C40        18.1874    7.1771   -2.4740 C.3       1 UNK         0.0000 
     41 C41        18.0461    5.6374   -2.2222 C.3       1 UNK         0.0000 
     42 N42        16.6472    5.1439   -2.0990 N.am      1 UNK         0.0000 
     43 O43        15.7464    5.9204   -2.7220 O.co2     1 UNK         0.0000 
     44 C44        16.2498    4.1373   -1.2738 C.2       1 UNK         0.0000 
     45 O45        15.0433    4.0989   -0.9649 O.co2     1 UNK         0.0000 
     46 C46        17.2175    3.1069   -0.6847 C.3       1 UNK         0.0000 
     47 N47        21.1026    9.7700   -2.0373 N.am      1 UNK         0.0000 
     48 C48        21.9203   10.5672   -2.7579 C.2       1 UNK         0.0000 
     49 O49        22.9861   10.9013   -2.2655 O.2       1 UNK         0.0000 
     50 C50        21.6010   11.0367   -4.1853 C.3       1 UNK         0.0000 
     51 C51        21.1026   12.5030   -4.3221 C.3       1 UNK         0.0000 
     52 H52        20.0443   12.4858   -4.0457 H         1 UNK         0.0000 
     53 O53        21.1407   12.8660   -5.6872 O.3       1 UNK         0.0000 
     54 C54        21.7364   13.6277   -3.4517 C.3       1 UNK         0.0000 
     55 C55        23.1991   14.1119   -3.6986 C.3       1 UNK         0.0000 
     56 C56        23.3712   15.1437   -4.8537 C.3       1 UNK         0.0000 
     57 C57        24.2301   16.4000   -4.5274 C.3       1 UNK         0.0000 
     58 C58        25.7676   16.1962   -4.4173 C.3       1 UNK         0.0000 
     59 C59        26.5844   17.0236   -5.4496 C.3       1 UNK         0.0000 
     60 C60        28.0961   17.1211   -5.1361 C.3       1 UNK         0.0000 
     61 C61        28.8638   18.0773   -6.0786 C.3       1 UNK         0.0000 
     62 C62        30.3594   18.2088   -5.7173 C.3       1 UNK         0.0000 
     63 C63        31.1711   19.1418   -6.6408 C.3       1 UNK         0.0000 
     64 C64        30.8031   20.6276   -6.5204 C.3       1 UNK         0.0000 
     65 H65        11.3767    4.4000   -4.5011 H         1 UNK         0.0000 
     66 H66        10.3438    5.7649   -4.1001 H         1 UNK         0.0000 
     67 H67        11.5970    5.9309   -5.3332 H         1 UNK         0.0000 
     68 H68        12.3937    9.1039   -3.8450 H         1 UNK         0.0000 
     69 H69        11.1513    8.0334   -4.3892 H         1 UNK         0.0000 
     70 H70        10.1110    8.1241   -2.0845 H         1 UNK         0.0000 
     71 H71         9.9796    9.5543   -3.0763 H         1 UNK         0.0000 
     72 H72        12.0840    9.3105   -0.8681 H         1 UNK         0.0000 
     73 H73        10.4940    9.9013   -0.5782 H         1 UNK         0.0000 
     74 H74        12.5848   11.3363    0.1341 H         1 UNK         0.0000 
     75 H75        15.2556   14.9752   -0.5852 H         1 UNK         0.0000 
     76 H76        15.6371   14.7452    1.1164 H         1 UNK         0.0000 
     77 H77        14.3528   16.6306    0.3395 H         1 UNK         0.0000 
     78 H78        15.1343   11.8405    1.4761 H         1 UNK         0.0000 
     79 H79        16.9341    8.6339    0.5672 H         1 UNK         0.0000 
     80 H80        15.6258    9.1296   -0.5154 H         1 UNK         0.0000 
     81 H81        14.2594    9.8477    1.2944 H         1 UNK         0.0000 
     82 H82        15.5961    9.9083    2.4246 H         1 UNK         0.0000 
     83 H83        15.7347    7.4754    2.4936 H         1 UNK         0.0000 
     84 H84        14.1494    8.0501    2.8957 H         1 UNK         0.0000 
     85 H85        12.3934    7.0740    2.9864 H         1 UNK         0.0000 
     86 H86        11.8442    5.5093    2.4738 H         1 UNK         0.0000 
     87 H87        11.1886    6.9615    1.7178 H         1 UNK         0.0000 
     88 H88        17.5050   10.7877   -1.9554 H         1 UNK         0.0000 
     89 H89        20.2085    7.4543   -3.2274 H         1 UNK         0.0000 
     90 H90        20.1081    7.3398   -1.4877 H         1 UNK         0.0000 
     91 H91        17.7960    7.3997   -3.4715 H         1 UNK         0.0000 
     92 H92        17.5247    7.6752   -1.7625 H         1 UNK         0.0000 
     93 H93        18.5520    5.0801   -3.0131 H         1 UNK         0.0000 
     94 H94        18.6047    5.4089   -1.3099 H         1 UNK         0.0000 
     95 H95        16.8655    2.1001   -0.9075 H         1 UNK         0.0000 
     96 H96        17.2435    3.2141    0.3986 H         1 UNK         0.0000 
     97 H97        18.2311    3.1940   -1.0798 H         1 UNK         0.0000 
     98 H98        21.4169    9.5766   -1.0919 H         1 UNK         0.0000 
     99 H99        20.8950   10.3537   -4.6572 H         1 UNK         0.0000 
    100 H100       22.5339   10.9134   -4.7414 H         1 UNK         0.0000 
    101 H101       20.5634   12.2697   -6.1752 H         1 UNK         0.0000 
    102 H102       21.6506   13.3072   -2.4109 H         1 UNK         0.0000 
    103 H103       21.0801   14.4997   -3.5124 H         1 UNK         0.0000 
    104 H104       23.8638   13.2542   -3.8447 H         1 UNK         0.0000 
    105 H105       23.5258   14.5820   -2.7653 H         1 UNK         0.0000 
    106 H106       22.3839   15.5109   -5.1525 H         1 UNK         0.0000 
    107 H107       23.7696   14.6406   -5.7393 H         1 UNK         0.0000 
    108 H108       23.8614   16.8510   -3.5997 H         1 UNK         0.0000 
    109 H109       24.0239   17.1578   -5.2897 H         1 UNK         0.0000 
    110 H110       26.0189   15.1366   -4.4994 H         1 UNK         0.0000 
    111 H111       26.0790   16.4961   -3.4119 H         1 UNK         0.0000 
    112 H112       26.1823   18.0382   -5.4947 H         1 UNK         0.0000 
    113 H113       26.4429   16.5947   -6.4454 H         1 UNK         0.0000 
    114 H114       28.5399   16.1241   -5.1809 H         1 UNK         0.0000 
    115 H115       28.2247   17.4708   -4.1092 H         1 UNK         0.0000 
    116 H116       28.3970   19.0641   -6.0447 H         1 UNK         0.0000 
    117 H117       28.7718   17.7274   -7.1085 H         1 UNK         0.0000 
    118 H118       30.4655   18.5510   -4.6851 H         1 UNK         0.0000 
    119 H119       30.8165   17.2172   -5.7548 H         1 UNK         0.0000 
    120 H120       32.2327   19.0401   -6.3973 H         1 UNK         0.0000 
    121 H121       31.0700   18.8236   -7.6819 H         1 UNK         0.0000 
    122 H122       30.9152   20.9806   -5.4924 H         1 UNK         0.0000 
    123 H123       29.7749   20.8152   -6.8364 H         1 UNK         0.0000 
    124 H124       31.4570   21.2377   -7.1505 H         1 UNK         0.0000 
    125 Fe125      14.2463    5.8810   -1.3900 Fe        1 UNK         0.0000 
@<TRIPOS>BOND
     1    1    2 2    
     2    1  125 nc   
     3    2    3 1    
     4    2    4 am   BACKBONE|DICT|INTERRES
     5    3   65 1    
     6    3   66 1    
     7    3   67 1    
     8    4    5 1    
     9    4    6 1    
    10    5  125 nc   
    11    6    7 1    
    12    6   68 1    
    13    6   69 1    
    14    7    8 1    
    15    7   70 1    
    16    7   71 1    
    17    8    9 1    
    18    8   72 1    
    19    8   73 1    
    20    9   10 1    
    21    9   11 1    
    22    9   14 1    
    23   11   12 1    
    24   11   13 2    
    25   14   15 am   BACKBONE|DICT|INTERRES
    26   14   74 1    
    27   15   16 2    
    28   15   17 1    
    29   17   19 1    
    30   17   21 1    
    31   17   18 1    
    32   19   20 1    
    33   19   75 1    
    34   19   76 1    
    35   20   77 1    
    36   21   22 am   BACKBONE|DICT|INTERRES
    37   21   78 1    
    38   22   23 2    
    39   22   24 1    
    40   24   25 1    
    41   24   26 1    
    42   24   34 1    
    43   26   27 1    
    44   26   79 1    
    45   26   80 1    
    46   27   28 1    
    47   27   81 1    
    48   27   82 1    
    49   28   29 1    
    50   28   83 1    
    51   28   84 1    
    52   29   30 1    
    53   29   31 am   BACKBONE|DICT|INTERRES
    54   30  125 nc   
    55   31   32 2    
    56   31   33 1    
    57   32  125 nc   
    58   33   85 1    
    59   33   86 1    
    60   33   87 1    
    61   34   35 am   BACKBONE|DICT|INTERRES
    62   34   88 1    
    63   35   36 2    
    64   35   37 1    
    65   37   39 1    
    66   37   47 1    
    67   37   38 1    
    68   39   40 1    
    69   39   89 1    
    70   39   90 1    
    71   40   41 1    
    72   40   91 1    
    73   40   92 1    
    74   41   42 1    
    75   41   93 1    
    76   41   94 1    
    77   42   43 1    
    78   42   44 am   BACKBONE|DICT|INTERRES
    79   43  125 nc   
    80   44   45 2    
    81   44   46 1    
    82   45  125 nc   
    83   46   95 1    
    84   46   96 1    
    85   46   97 1    
    86   47   48 am   BACKBONE|DICT|INTERRES
    87   47   98 1    
    88   48   49 2    
    89   48   50 1    
    90   50   99 1    
    91   50  100 1    
    92   50   51 1    
    93   51   53 1    
    94   51   54 1    
    95   51   52 1    
    96   53  101 1    
    97   54   55 1    
    98   54  102 1    
    99   54  103 1    
   100   55   56 1    
   101   55  104 1    
   102   55  105 1    
   103   56   57 1    
   104   56  106 1    
   105   56  107 1    
   106   57   58 1    
   107   57  108 1    
   108   57  109 1    
   109   58   59 1    
   110   58  110 1    
   111   58  111 1    
   112   59   60 1    
   113   59  112 1    
   114   59  113 1    
   115   60   61 1    
   116   60  114 1    
   117   60  115 1    
   118   61   62 1    
   119   61  116 1    
   120   61  117 1    
   121   62   63 1    
   122   62  118 1    
   123   62  119 1    
   124   63   64 1    
   125   63  120 1    
   126   63  121 1    
   127   64  122 1    
   128   64  123 1    
   129   64  124 1    
@<TRIPOS>SUBSTRUCTURE
     1 UNK         1 GROUP             0       ****    0 ROOT    
