@<TRIPOS>MOLECULE
261_1_c1
85   94    1
SMALL
USER_CHARGES


@<TRIPOS>ATOM
      1 C1         -4.5276  -11.4625    1.8934 C.ar      1 UNK         0.0000 
      2 C2         -5.7549  -10.9219    1.5577 C.ar      1 UNK         0.0000 
      3 C3         -5.8708   -9.5572    1.3982 C.ar      1 UNK         0.0000 
      4 C4         -4.7768   -8.7327    1.6072 C.ar      1 UNK         0.0000 
      5 O5         -4.9654   -7.5240    1.3402 O.co2     1 UNK         0.0000 
      6 C6         -3.5177   -9.2422    2.0290 C.ar      1 UNK         0.0000 
      7 O7         -2.5667   -8.3929    2.2764 O.co2     1 UNK         0.0000 
      8 C8         -3.3843  -10.6655    2.1073 C.ar      1 UNK         0.0000 
      9 C9         -2.0725  -11.4335    2.2814 C.2       1 UNK         0.0000 
     10 O10        -2.0752  -12.6606    2.3881 O.2       1 UNK         0.0000 
     11 N11        -0.9166  -10.7723    2.1169 N.am      1 UNK         0.0000 
     12 C12         0.2762  -11.4834    1.6394 C.3       1 UNK         0.0000 
     13 C13         1.5258  -10.6463    1.2972 C.3       1 UNK         0.0000 
     14 C14         1.2765   -9.3047    0.5518 C.3       1 UNK         0.0000 
     15 N15         1.0255   -8.1292    1.4014 N.am      1 UNK         0.0000 
     16 C16         0.4819   -6.9667    0.9219 C.2       1 UNK         0.0000 
     17 O17         0.7443   -5.9478    1.5577 O.2       1 UNK         0.0000 
     18 C18        -0.3487   -6.7750   -0.4679 C.3       1 UNK         0.0000 
     19 H19         0.2699   -7.1826   -1.2747 H         1 UNK         0.0000 
     20 N20        -0.6237   -5.3439   -0.6594 N.2       1 UNK         0.0000 
     21 C21        -1.6335   -5.1537    0.1237 C.2       1 UNK         0.0000 
     22 O22        -2.4121   -6.3065    0.3335 O.3       1 UNK         0.0000 
     23 C23        -1.8208   -7.2374   -0.6036 C.3       1 UNK         0.0000 
     24 H24        -2.2258   -6.9643   -1.5904 H         1 UNK         0.0000 
     25 C25        -2.0832   -8.7495   -0.6150 C.3       1 UNK         0.0000 
     26 C26        -1.6625   -4.0640    1.1249 C.ar      1 UNK         0.0000 
     27 C27        -1.6808   -4.3607    2.5098 C.ar      1 UNK         0.0000 
     28 O28        -1.8775   -5.5416    2.9374 O.co2     1 UNK         0.0000 
     29 C29        -1.4799   -3.3463    3.4435 C.ar      1 UNK         0.0000 
     30 C30        -1.2542   -2.0384    3.0238 C.ar      1 UNK         0.0000 
     31 C31        -1.2348   -1.7368    1.6667 C.ar      1 UNK         0.0000 
     32 C32        -1.4150   -2.7433    0.7205 C.ar      1 UNK         0.0000 
     33 C33         1.9089   -8.0537    2.6177 C.3       1 UNK         0.0000 
     34 C34         1.3849   -8.5904    3.9921 C.3       1 UNK         0.0000 
     35 C35         0.5881   -7.6469    4.9482 C.3       1 UNK         0.0000 
     36 N36        -0.8912   -7.7488    4.9869 N.am      1 UNK         0.0000 
     37 C37        -1.6007   -7.1125    5.9634 C.2       1 UNK         0.0000 
     38 O38        -0.9996   -6.5333    6.8694 O.2       1 UNK         0.0000 
     39 C39        -3.1862   -7.1166    6.0229 C.3       1 UNK         0.0000 
     40 H40        -3.4070   -7.6093    6.9764 H         1 UNK         0.0000 
     41 N41        -3.7226   -5.7670    5.9909 N.2       1 UNK         0.0000 
     42 C42        -4.1889   -5.5838    4.8067 C.2       1 UNK         0.0000 
     43 O43        -4.1120   -6.7216    4.0054 O.3       1 UNK         0.0000 
     44 C44        -3.9086   -7.8333    4.8929 C.3       1 UNK         0.0000 
     45 H45        -3.3000   -8.6557    4.5462 H         1 UNK         0.0000 
     46 C46        -5.2917   -8.4413    5.2256 C.3       1 UNK         0.0000 
     47 C47        -4.7283   -4.3121    4.2299 C.ar      1 UNK         0.0000 
     48 C48        -4.8608   -4.0300    2.8392 C.ar      1 UNK         0.0000 
     49 O49        -4.5818   -4.8538    1.9211 O.co2     1 UNK         0.0000 
     50 C50        -5.2090   -2.7476    2.4180 C.ar      1 UNK         0.0000 
     51 C51        -5.4893   -1.7441    3.3421 C.ar      1 UNK         0.0000 
     52 C52        -5.3916   -2.0091    4.7006 C.ar      1 UNK         0.0000 
     53 C53        -4.9995   -3.2711    5.1364 C.ar      1 UNK         0.0000 
     54 H54        -4.4587  -12.5390    1.9507 H         1 UNK         0.0000 
     55 H55        -6.6031  -11.5552    1.3804 H         1 UNK         0.0000 
     56 H56        -6.8139   -9.1282    1.0743 H         1 UNK         0.0000 
     57 H57        -1.0091   -9.7643    2.1927 H         1 UNK         0.0000 
     58 H58        -0.0076  -12.0198    0.7269 H         1 UNK         0.0000 
     59 H59         0.5609  -12.2399    2.3826 H         1 UNK         0.0000 
     60 H60         2.1450  -11.2761    0.6560 H         1 UNK         0.0000 
     61 H61         2.1311  -10.5392    2.1953 H         1 UNK         0.0000 
     62 H62         0.4983   -9.4540   -0.1940 H         1 UNK         0.0000 
     63 H63         2.1832   -9.0869   -0.0150 H         1 UNK         0.0000 
     64 H64        -1.6050   -9.2640    0.2053 H         1 UNK         0.0000 
     65 H65        -1.6889   -9.2145   -1.5140 H         1 UNK         0.0000 
     66 H66        -3.1471   -8.9782   -0.6004 H         1 UNK         0.0000 
     67 H67        -1.4800   -3.5690    4.4985 H         1 UNK         0.0000 
     68 H68        -1.0938   -1.2598    3.7522 H         1 UNK         0.0000 
     69 H69        -1.0445   -0.7378    1.3298 H         1 UNK         0.0000 
     70 H70        -1.3750   -2.5112   -0.3394 H         1 UNK         0.0000 
     71 H71         2.2443   -7.0367    2.8176 H         1 UNK         0.0000 
     72 H72         2.8565   -8.5481    2.3812 H         1 UNK         0.0000 
     73 H73         2.3169   -8.7593    4.5416 H         1 UNK         0.0000 
     74 H74         0.9068   -9.5677    3.9128 H         1 UNK         0.0000 
     75 H75         0.8832   -6.5993    4.8161 H         1 UNK         0.0000 
     76 H76         0.9490   -7.8904    5.9567 H         1 UNK         0.0000 
     77 H77        -1.3573   -8.1086    4.1615 H         1 UNK         0.0000 
     78 H78        -5.9670   -7.7024    5.6431 H         1 UNK         0.0000 
     79 H79        -5.2059   -9.2577    5.9343 H         1 UNK         0.0000 
     80 H80        -5.7637   -8.8437    4.3344 H         1 UNK         0.0000 
     81 H81        -5.2204   -2.5142    1.3615 H         1 UNK         0.0000 
     82 H82        -5.7769   -0.7637    2.9926 H         1 UNK         0.0000 
     83 H83        -5.6042   -1.2580    5.4331 H         1 UNK         0.0000 
     84 H84        -4.8612   -3.4434    6.2035 H         1 UNK         0.0000 
     85 Fe85       -3.4447   -6.5347    2.1210 Fe        1 UNK         0.0000 
@<TRIPOS>BOND
     1    1    2 ar   
     2    1    8 ar   
     3    1   54 1    
     4    2    3 ar   
     5    2   55 1    
     6    3    4 ar   
     7    3   56 1    
     8    4    5 1    
     9    4    6 ar   
    10    5   85 nc   
    11    6    7 1    
    12    6    8 ar   
    13    7   85 nc   
    14    8    9 1    
    15    9   10 2    
    16    9   11 am   BACKBONE|DICT|INTERRES
    17   11   12 1    
    18   11   57 1    
    19   12   13 1    
    20   12   58 1    
    21   12   59 1    
    22   13   14 1    
    23   13   60 1    
    24   13   61 1    
    25   14   15 1    
    26   14   62 1    
    27   14   63 1    
    28   15   16 am   BACKBONE|DICT|INTERRES
    29   15   33 1    
    30   16   17 2    
    31   16   18 1    
    32   18   20 1    
    33   18   23 1    
    34   18   19 1    
    35   20   21 2    
    36   21   22 1    
    37   21   26 1    
    38   22   23 1    
    39   22   85 nc   
    40   23   25 1    
    41   23   24 1    
    42   25   64 1    
    43   25   65 1    
    44   25   66 1    
    45   26   27 ar   
    46   26   32 ar   
    47   27   28 1    
    48   27   29 ar   
    49   28   85 nc   
    50   29   30 ar   
    51   29   67 1    
    52   30   31 ar   
    53   30   68 1    
    54   31   32 ar   
    55   31   69 1    
    56   32   70 1    
    57   33   34 1    
    58   33   71 1    
    59   33   72 1    
    60   34   35 1    
    61   34   73 1    
    62   34   74 1    
    63   35   36 1    
    64   35   75 1    
    65   35   76 1    
    66   36   37 am   BACKBONE|DICT|INTERRES
    67   36   77 1    
    68   37   38 2    
    69   37   39 1    
    70   39   40 1    
    71   39   41 1    
    72   39   44 1    
    73   41   42 2    
    74   42   43 1    
    75   42   47 1    
    76   43   44 1    
    77   43   85 nc   
    78   44   46 1    
    79   44   45 1    
    80   46   78 1    
    81   46   79 1    
    82   46   80 1    
    83   47   48 ar   
    84   47   53 ar   
    85   48   49 1    
    86   48   50 ar   
    87   49   85 nc   
    88   50   51 ar   
    89   50   81 1    
    90   51   52 ar   
    91   51   82 1    
    92   52   53 ar   
    93   52   83 1    
    94   53   84 1    
@<TRIPOS>SUBSTRUCTURE
     1 UNK         1 GROUP             0       ****    0 ROOT    
