@<TRIPOS>MOLECULE
263_D2_c1
145   150    1
SMALL
USER_CHARGES


@<TRIPOS>ATOM
      1 C1         31.2517   -6.8892   14.1261 C.3       1 UNK         0.0000 
      2 C2         29.7694   -6.7723   13.8732 C.2       1 UNK         0.0000 
      3 O3         29.3850   -5.8579   13.1903 O.co2     1 UNK         0.0000 
      4 N4         28.8123   -7.6584   14.2833 N.am      1 UNK         0.0000 
      5 O5         27.5217   -7.1816   14.2408 O.co2     1 UNK         0.0000 
      6 C6         29.1960   -9.0134   14.7263 C.3       1 UNK         0.0000 
      7 C7         28.9095  -10.2418   13.7550 C.3       1 UNK         0.0000 
      8 C8         29.2412  -10.1689   12.1945 C.3       1 UNK         0.0000 
      9 C9         27.9374   -9.9789   11.3356 C.3       1 UNK         0.0000 
     10 H10        27.3075  -10.8908   11.4506 H         1 UNK         0.0000 
     11 C11        27.3177   -8.8156   11.9304 C.2       1 UNK         0.0000 
     12 O12        28.0364   -7.6890   11.8278 O.co2     1 UNK         0.0000 
     13 O13        26.2690   -8.8935   12.5443 O.co2     1 UNK         0.0000 
     14 N14        28.0836   -9.6209    9.9119 N.am      1 UNK         0.0000 
     15 C15        26.9524   -9.3836    9.1414 C.2       1 UNK         0.0000 
     16 O16        25.8574   -9.7040    9.5860 O.2       1 UNK         0.0000 
     17 C17        26.9316   -8.6689    7.7695 C.3       1 UNK         0.0000 
     18 H18        26.5501   -9.4000    7.0227 H         1 UNK         0.0000 
     19 C19        28.3011   -8.1789    7.2696 C.3       1 UNK         0.0000 
     20 O20        29.1584   -9.2643    7.0578 O.3       1 UNK         0.0000 
     21 N21        25.9738   -7.5397    7.8033 N.am      1 UNK         0.0000 
     22 C22        26.0974   -6.4852    8.6646 C.2       1 UNK         0.0000 
     23 O23        27.0218   -6.5029    9.4316 O.2       1 UNK         0.0000 
     24 C24        24.9774   -5.4530    8.8827 C.3       1 UNK         0.0000 
     25 H25        24.3785   -5.4221    7.9475 H         1 UNK         0.0000 
     26 C26        25.4098   -3.9708    9.2904 C.3       1 UNK         0.0000 
     27 C27        26.6101   -3.0552    9.0092 C.3       1 UNK         0.0000 
     28 C28        27.9040   -3.3779    9.7910 C.3       1 UNK         0.0000 
     29 N29        27.7271   -4.0416   11.0942 N.am      1 UNK         0.0000 
     30 O30        28.1272   -5.2938   11.0700 O.co2     1 UNK         0.0000 
     31 C31        27.2693   -3.5656   12.2992 C.2       1 UNK         0.0000 
     32 O32        27.1888   -4.3682   13.2479 O.co2     1 UNK         0.0000 
     33 C33        26.8892   -2.1320   12.4837 C.3       1 UNK         0.0000 
     34 N34        24.1571   -5.9988    9.9860 N.am      1 UNK         0.0000 
     35 C35        23.5280   -5.2162   10.9238 C.2       1 UNK         0.0000 
     36 O36        23.1142   -4.1023   10.6384 O.2       1 UNK         0.0000 
     37 C37        23.4728   -5.6092   12.3945 C.3       1 UNK         0.0000 
     38 H38        23.8656   -4.6940   12.8964 H         1 UNK         0.0000 
     39 C39        24.5728   -6.6307   12.8261 C.3       1 UNK         0.0000 
     40 O40        25.7540   -6.3724   12.0564 O.co2     1 UNK         0.0000 
     41 N41        22.0807   -5.7665   12.8564 N.am      1 UNK         0.0000 
     42 C42        21.0662   -5.9853   11.9474 C.2       1 UNK         0.0000 
     43 O43        21.2736   -6.6497   10.9400 O.2       1 UNK         0.0000 
     44 C44        19.7620   -5.1851   12.0075 C.3       1 UNK         0.0000 
     45 H45        19.2184   -5.3844   11.0571 H         1 UNK         0.0000 
     46 C46        20.1811   -3.6821   12.0344 C.3       1 UNK         0.0000 
     47 C47        19.0994   -2.6456   11.8947 C.2       1 UNK         0.0000 
     48 O48        18.9336   -1.8683   12.8252 O.2       1 UNK         0.0000 
     49 C49        18.2360   -2.4641   10.6644 C.3       1 UNK         0.0000 
     50 H50        18.3333   -1.3853   10.3963 H         1 UNK         0.0000 
     51 C51        16.7281   -2.7230   11.0023 C.3       1 UNK         0.0000 
     52 H52        16.4804   -2.2760   11.9889 H         1 UNK         0.0000 
     53 O53        15.9145   -2.0105   10.0939 O.3       1 UNK         0.0000 
     54 C54        16.3381   -4.2068   10.9922 C.2       1 UNK         0.0000 
     55 O55        15.6243   -4.5874   10.0742 O.2       1 UNK         0.0000 
     56 N56        16.7328   -5.1387   11.9152 N.am      1 UNK         0.0000 
     57 C57        17.4622   -4.8928   13.1485 C.3       1 UNK         0.0000 
     58 C58        18.8293   -5.6148   13.1573 C.3       1 UNK         0.0000 
     59 N59        18.7005   -3.3005    9.5313 N.3       1 UNK         0.0000 
     60 C60        19.7875   -2.6788    8.7527 C.3       1 UNK         0.0000 
     61 C61        20.4415   -3.6969    7.8464 C.2       1 UNK         0.0000 
     62 O62        20.0635   -4.8601    7.8561 O.2       1 UNK         0.0000 
     63 C63        21.5838   -3.3053    6.9438 C.3       1 UNK         0.0000 
     64 C64        21.2593   -3.5959    5.4699 C.3       1 UNK         0.0000 
     65 C65        22.4432   -3.2224    4.5616 C.3       1 UNK         0.0000 
     66 C66        22.1724   -3.4636    3.0650 C.3       1 UNK         0.0000 
     67 C67        21.9971   -4.9469    2.7041 C.3       1 UNK         0.0000 
     68 C68        21.7576   -5.0886    1.2179 C.2       1 UNK         0.0000 
     69 C69        22.5183   -5.7575    0.3261 C.2       1 UNK         0.0000 
     70 C70        23.7917   -6.5287    0.6074 C.3       1 UNK         0.0000 
     71 C71        25.0098   -5.9331   -0.1192 C.3       1 UNK         0.0000 
     72 C72        24.8932   -5.9772   -1.6549 C.3       1 UNK         0.0000 
     73 C73        26.0989   -5.3490   -2.3754 C.3       1 UNK         0.0000 
     74 C74        27.4194   -6.1009   -2.1452 C.3       1 UNK         0.0000 
     75 C75        28.5600   -5.4461   -2.9413 C.3       1 UNK         0.0000 
     76 C76        29.9253   -6.1152   -2.7147 C.3       1 UNK         0.0000 
     77 C77        29.9860   -7.5577   -3.2172 C.3       1 UNK         0.0000 
     78 H78        31.7879   -6.0234   13.6775 H         1 UNK         0.0000 
     79 H79        31.6637   -7.8063   13.6593 H         1 UNK         0.0000 
     80 H80        31.4486   -6.8868   15.2184 H         1 UNK         0.0000 
     81 H81        28.7997   -9.2120   15.7436 H         1 UNK         0.0000 
     82 H82        30.2944   -9.0576   14.8525 H         1 UNK         0.0000 
     83 H83        27.8726  -10.6122   13.8894 H         1 UNK         0.0000 
     84 H84        29.5433  -11.0571   14.1713 H         1 UNK         0.0000 
     85 H85        29.6706  -11.1370   11.8569 H         1 UNK         0.0000 
     86 H86        30.0178   -9.3911   12.0202 H         1 UNK         0.0000 
     87 H87        29.0247   -9.4093    9.5538 H         1 UNK         0.0000 
     88 H88        28.7568   -7.4726    7.9971 H         1 UNK         0.0000 
     89 H89        28.1401   -7.6493    6.3030 H         1 UNK         0.0000 
     90 H90        29.9894   -8.8806    6.6738 H         1 UNK         0.0000 
     91 H91        25.1432   -7.5858    7.1935 H         1 UNK         0.0000 
     92 H92        25.4533   -3.9400   10.3892 H         1 UNK         0.0000 
     93 H93        24.5387   -3.3555    8.9734 H         1 UNK         0.0000 
     94 H94        26.3016   -2.0640    9.4111 H         1 UNK         0.0000 
     95 H95        26.7930   -2.9056    7.9238 H         1 UNK         0.0000 
     96 H96        28.5786   -2.4994    9.8637 H         1 UNK         0.0000 
     97 H97        28.4249   -4.1022    9.1234 H         1 UNK         0.0000 
     98 H98        27.7645   -1.4872   12.2618 H         1 UNK         0.0000 
     99 H99        26.5609   -1.9476   13.5284 H         1 UNK         0.0000 
    100 H100       26.0565   -1.8719   11.8001 H         1 UNK         0.0000 
    101 H101       24.3872   -6.9569   10.2873 H         1 UNK         0.0000 
    102 H102       24.7687   -6.6060   13.9196 H         1 UNK         0.0000 
    103 H103       24.2037   -7.6417   12.5576 H         1 UNK         0.0000 
    104 H104       21.8433   -5.2020   13.6850 H         1 UNK         0.0000 
    105 H105       20.8917   -3.4958   11.2157 H         1 UNK         0.0000 
    106 H106       20.7161   -3.4788   12.9850 H         1 UNK         0.0000 
    107 H107       16.2032   -2.2013    9.1656 H         1 UNK         0.0000 
    108 H108       16.4467   -6.1165   11.7499 H         1 UNK         0.0000 
    109 H109       16.8518   -5.2826   13.9903 H         1 UNK         0.0000 
    110 H110       17.5658   -3.8231   13.3628 H         1 UNK         0.0000 
    111 H111       18.6352   -6.7057   13.0545 H         1 UNK         0.0000 
    112 H112       19.3282   -5.4435   14.1341 H         1 UNK         0.0000 
    113 H113       17.9287   -3.4949    8.8533 H         1 UNK         0.0000 
    114 H114       20.5692   -2.2604    9.4192 H         1 UNK         0.0000 
    115 H115       19.3811   -1.8443    8.1387 H         1 UNK         0.0000 
    116 H116       22.4803   -3.8892    7.2436 H         1 UNK         0.0000 
    117 H117       21.8123   -2.2243    7.0685 H         1 UNK         0.0000 
    118 H118       20.3636   -3.0098    5.1672 H         1 UNK         0.0000 
    119 H119       21.0342   -4.6775    5.3642 H         1 UNK         0.0000 
    120 H120       23.3490   -3.7923    4.8648 H         1 UNK         0.0000 
    121 H121       22.6560   -2.1392    4.6959 H         1 UNK         0.0000 
    122 H122       21.2761   -2.8835    2.7530 H         1 UNK         0.0000 
    123 H123       23.0488   -3.0766    2.4988 H         1 UNK         0.0000 
    124 H124       21.1129   -5.3702    3.2220 H         1 UNK         0.0000 
    125 H125       22.8867   -5.4957    3.0575 H         1 UNK         0.0000 
    126 H126       20.8729   -4.5902    0.8301 H         1 UNK         0.0000 
    127 H127       22.1755   -5.7424   -0.7035 H         1 UNK         0.0000 
    128 H128       23.6471   -7.5841    0.2917 H         1 UNK         0.0000 
    129 H129       24.0402   -6.5491    1.6819 H         1 UNK         0.0000 
    130 H130       25.8945   -6.5257    0.1930 H         1 UNK         0.0000 
    131 H131       25.1541   -4.8830    0.2177 H         1 UNK         0.0000 
    132 H132       24.0015   -5.3973   -1.9697 H         1 UNK         0.0000 
    133 H133       24.7635   -7.0284   -1.9937 H         1 UNK         0.0000 
    134 H134       26.2062   -4.2894   -2.0547 H         1 UNK         0.0000 
    135 H135       25.8791   -5.3590   -3.4659 H         1 UNK         0.0000 
    136 H136       27.6879   -6.0806   -1.0688 H         1 UNK         0.0000 
    137 H137       27.2855   -7.1544   -2.4682 H         1 UNK         0.0000 
    138 H138       28.6487   -4.3856   -2.6178 H         1 UNK         0.0000 
    139 H139       28.3204   -5.4575   -4.0274 H         1 UNK         0.0000 
    140 H140       30.1843   -6.0866   -1.6340 H         1 UNK         0.0000 
    141 H141       30.6908   -5.5294   -3.2686 H         1 UNK         0.0000 
    142 H142       29.2824   -8.2085   -2.6599 H         1 UNK         0.0000 
    143 H143       31.0111   -7.9566   -3.0653 H         1 UNK         0.0000 
    144 H144       29.7474   -7.5977   -4.3013 H         1 UNK         0.0000 
    145 Fe145      27.6177   -6.1054   12.6404 Fe        1 UNK         0.0000 
@<TRIPOS>BOND
     1    1    2 1    
     2    1   78 1    
     3    1   79 1    
     4    1   80 1    
     5    2    3 2    
     6    2    4 am   BACKBONE|DICT|INTERRES
     7    3  145 nc   
     8    4    5 1    
     9    4    6 1    
    10    5  145 nc   
    11    6    7 1    
    12    6   81 1    
    13    6   82 1    
    14    7    8 1    
    15    7   83 1    
    16    7   84 1    
    17    8    9 1    
    18    8   85 1    
    19    8   86 1    
    20    9   10 1    
    21    9   11 1    
    22    9   14 1    
    23   11   12 1    
    24   11   13 2    
    25   12  145 nc   
    26   14   15 am   BACKBONE|DICT|INTERRES
    27   14   87 1    
    28   15   16 2    
    29   15   17 1    
    30   17   19 1    
    31   17   21 1    
    32   17   18 1    
    33   19   20 1    
    34   19   88 1    
    35   19   89 1    
    36   20   90 1    
    37   21   22 am   BACKBONE|DICT|INTERRES
    38   21   91 1    
    39   22   23 2    
    40   22   24 1    
    41   24   26 1    
    42   24   34 1    
    43   24   25 1    
    44   26   27 1    
    45   26   92 1    
    46   26   93 1    
    47   27   28 1    
    48   27   94 1    
    49   27   95 1    
    50   28   29 1    
    51   28   96 1    
    52   28   97 1    
    53   29   30 1    
    54   29   31 am   BACKBONE|DICT|INTERRES
    55   30  145 nc   
    56   31   32 2    
    57   31   33 1    
    58   32  145 nc   
    59   33   98 1    
    60   33   99 1    
    61   33  100 1    
    62   34   35 am   BACKBONE|DICT|INTERRES
    63   34  101 1    
    64   35   36 2    
    65   35   37 1    
    66   37   39 1    
    67   37   41 1    
    68   37   38 1    
    69   39   40 1    
    70   39  102 1    
    71   39  103 1    
    72   40  145 nc   
    73   41   42 am   BACKBONE|DICT|INTERRES
    74   41  104 1    
    75   42   43 2    
    76   42   44 1    
    77   44   46 1    
    78   44   58 1    
    79   44   45 1    
    80   46   47 1    
    81   46  105 1    
    82   46  106 1    
    83   47   48 2    
    84   47   49 1    
    85   49   51 1    
    86   49   59 1    
    87   49   50 1    
    88   51   54 1    
    89   51   53 1    
    90   51   52 1    
    91   53  107 1    
    92   54   55 2    
    93   54   56 am   BACKBONE|DICT|INTERRES
    94   56   57 1    
    95   56  108 1    
    96   57   58 1    
    97   57  109 1    
    98   57  110 1    
    99   58  111 1    
   100   58  112 1    
   101   59   60 1    
   102   59  113 1    
   103   60   61 1    
   104   60  114 1    
   105   60  115 1    
   106   61   62 2    
   107   61   63 1    
   108   63   64 1    
   109   63  116 1    
   110   63  117 1    
   111   64   65 1    
   112   64  118 1    
   113   64  119 1    
   114   65   66 1    
   115   65  120 1    
   116   65  121 1    
   117   66   67 1    
   118   66  122 1    
   119   66  123 1    
   120   67   68 1    
   121   67  124 1    
   122   67  125 1    
   123   68   69 2    
   124   68  126 1    
   125   69   70 1    
   126   69  127 1    
   127   70   71 1    
   128   70  128 1    
   129   70  129 1    
   130   71   72 1    
   131   71  130 1    
   132   71  131 1    
   133   72   73 1    
   134   72  132 1    
   135   72  133 1    
   136   73   74 1    
   137   73  134 1    
   138   73  135 1    
   139   74   75 1    
   140   74  136 1    
   141   74  137 1    
   142   75   76 1    
   143   75  138 1    
   144   75  139 1    
   145   76   77 1    
   146   76  140 1    
   147   76  141 1    
   148   77  142 1    
   149   77  143 1    
   150   77  144 1    
@<TRIPOS>SUBSTRUCTURE
     1 UNK         1 GROUP             0       ****    0 ROOT    
