@<TRIPOS>MOLECULE
028_r1_c1
126   132    1
SMALL
USER_CHARGES


@<TRIPOS>ATOM
      1 Fe1         7.3174   -6.7998   -0.8111 Fe        1 UNK         0.0000 
      2 O2        -11.0572    9.7407   -1.5483 O.2       1 UNK         0.0000 
      3 C3        -11.7826    8.8245   -1.1987 C.2       1 UNK         0.0000 
      4 N4        -13.1222    9.0055   -1.2266 N.am      1 UNK         0.0000 
      5 N5        -11.2624    7.5610   -0.7639 N.am      1 UNK         0.0000 
      6 C6        -10.0408    7.1342   -0.6205 C.ar      1 UNK         0.0000 
      7 C7         -8.9211    7.9378   -0.8930 C.ar      1 UNK         0.0000 
      8 C8         -7.6447    7.4281   -0.7146 C.ar      1 UNK         0.0000 
      9 N9         -9.8287    5.8435   -0.1816 N.pl3     1 UNK         0.0000 
     10 C10       -10.9597    4.9447    0.1313 C.3       1 UNK         0.0000 
     11 C11        -8.5376    5.3515   -0.0172 C.ar      1 UNK         0.0000 
     12 O12        -8.3735    4.2032    0.3637 O.2       1 UNK         0.0000 
     13 N13        -7.4388    6.1519   -0.2803 N.pl3     1 UNK         0.0000 
     14 C14        -6.0314    5.7021   -0.1089 C.3       1 UNK         0.0000 
     15 H15        -5.3384    6.5217   -0.4105 H         1 UNK         0.0000 
     16 C16        -5.6819    5.2856    1.3175 C.3       1 UNK         0.0000 
     17 H17        -6.3162    4.4470    1.6807 H         1 UNK         0.0000 
     18 O18        -5.7585    6.3728    2.2014 O.3       1 UNK         0.0000 
     19 C19        -4.2399    4.7925    1.1842 C.3       1 UNK         0.0000 
     20 H20        -3.6184    5.6653    0.8652 H         1 UNK         0.0000 
     21 O21        -3.7576    4.2879    2.3980 O.3       1 UNK         0.0000 
     22 S22        -5.5769    4.2718   -1.1409 S.3       1 UNK         0.0000 
     23 C23        -4.2059    3.7670    0.0080 C.3       1 UNK         0.0000 
     24 H24        -3.2512    3.8894   -0.5440 H         1 UNK         0.0000 
     25 C25        -4.3533    2.2470    0.3558 C.3       1 UNK         0.0000 
     26 H26        -4.7135    1.7505   -0.5727 H         1 UNK         0.0000 
     27 O27        -5.3673    2.0401    1.3086 O.3       1 UNK         0.0000 
     28 C28        -3.0414    1.4113    0.6717 C.3       1 UNK         0.0000 
     29 H29        -3.4329    0.4079    0.9127 H         1 UNK         0.0000 
     30 C30        -2.2447    1.9353    1.8371 C.2       1 UNK         0.0000 
     31 O31        -1.5479    3.0828    1.7221 O.2       1 UNK         0.0000 
     32 O32        -2.1648    1.2848    2.8670 O.3       1 UNK         0.0000 
     33 N33        -2.1771    1.3095   -0.5139 N.am      1 UNK         0.0000 
     34 C34        -1.0096    0.5894   -0.6786 C.2       1 UNK         0.0000 
     35 O35        -0.4461    0.7027   -1.7582 O.2       1 UNK         0.0000 
     36 C36        -0.3427   -0.3304    0.3793 C.3       1 UNK         0.0000 
     37 H37        -0.2023    0.2727    1.3001 H         1 UNK         0.0000 
     38 C38        -1.2340   -1.5577    0.6764 C.3       1 UNK         0.0000 
     39 O39        -1.4242   -2.3034   -0.4948 O.3       1 UNK         0.0000 
     40 N40         1.0000   -0.7936   -0.0501 N.am      1 UNK         0.0000 
     41 C41         1.8606   -1.4867    0.7659 C.2       1 UNK         0.0000 
     42 O42         1.5353   -1.7452    1.9167 O.2       1 UNK         0.0000 
     43 C43         3.2605   -1.9231    0.2999 C.3       1 UNK         0.0000 
     44 H44         3.4187   -1.6046   -0.7525 H         1 UNK         0.0000 
     45 C45         3.3577   -3.4920    0.3587 C.3       1 UNK         0.0000 
     46 C46         2.5157   -4.2263   -0.7248 C.3       1 UNK         0.0000 
     47 C47         2.9855   -5.6888   -1.0620 C.3       1 UNK         0.0000 
     48 N48         4.4316   -5.8194   -1.2881 N.am      1 UNK         0.0000 
     49 O49         5.1839   -6.8831   -0.9652 O.co2     1 UNK         0.0000 
     50 C50         5.2517   -5.0475   -1.9320 C.2       1 UNK         0.0000 
     51 O51         6.3847   -5.3952   -1.6636 O.co2     1 UNK         0.0000 
     52 C52         4.8969   -3.9236   -2.8736 C.3       1 UNK         0.0000 
     53 N53         4.2819   -1.2201    1.1194 N.am      1 UNK         0.0000 
     54 C54         5.6668   -1.2756    1.0449 C.2       1 UNK         0.0000 
     55 O55         6.3143   -0.6028    1.8346 O.2       1 UNK         0.0000 
     56 C56         6.4364   -2.2322    0.1420 C.3       1 UNK         0.0000 
     57 H57         5.7628   -2.4616   -0.6929 H         1 UNK         0.0000 
     58 C58         6.7623   -3.4989    0.9836 C.3       1 UNK         0.0000 
     59 C59         8.0681   -3.4252    1.8014 C.3       1 UNK         0.0000 
     60 C60         8.3895   -4.7375    2.5207 C.3       1 UNK         0.0000 
     61 N61         8.1967   -5.9035    1.6585 N.am      1 UNK         0.0000 
     62 O62         8.7320   -6.0187    0.4224 O.co2     1 UNK         0.0000 
     63 C63         7.4063   -6.9408    1.9174 C.2       1 UNK         0.0000 
     64 O64         7.3943   -7.7292    0.9980 O.co2     1 UNK         0.0000 
     65 C65         6.5444   -7.1823    3.1315 C.3       1 UNK         0.0000 
     66 N66         7.7048   -1.7302   -0.4067 N.am      1 UNK         0.0000 
     67 C67         8.3283   -2.3949   -1.4390 C.2       1 UNK         0.0000 
     68 O68         7.6868   -3.1206   -2.1709 O.2       1 UNK         0.0000 
     69 C69         9.8370   -2.3653   -1.6281 C.3       1 UNK         0.0000 
     70 H70        10.2540   -1.7659   -0.7893 H         1 UNK         0.0000 
     71 N71        10.2052   -1.7090   -2.8829 N.3       1 UNK         0.0000 
     72 C72        10.4278   -3.8220   -1.5132 C.3       1 UNK         0.0000 
     73 C73        10.3206   -4.7386   -2.7732 C.3       1 UNK         0.0000 
     74 C74        10.6698   -6.2513   -2.5337 C.3       1 UNK         0.0000 
     75 N75         9.5109   -7.0628   -2.1536 N.am      1 UNK         0.0000 
     76 O76         8.2079   -6.7634   -2.0445 O.co2     1 UNK         0.0000 
     77 C77         9.2342   -8.1901   -1.7948 C.2       1 UNK         0.0000 
     78 O78         8.0015   -8.0090   -1.6139 O.co2     1 UNK         0.0000 
     79 C79        10.0929   -9.3787   -1.5106 C.3       1 UNK         0.0000 
     80 H80       -13.7584    8.2483   -0.9380 H         1 UNK         0.0000 
     81 H81       -13.5258    9.9031   -1.5356 H         1 UNK         0.0000 
     82 H82        -8.9772    8.9541   -1.2363 H         1 UNK         0.0000 
     83 H83        -6.8094    8.0840   -0.9311 H         1 UNK         0.0000 
     84 H84       -11.9546    5.4116   -0.0224 H         1 UNK         0.0000 
     85 H85       -10.9151    4.0430   -0.5153 H         1 UNK         0.0000 
     86 H86       -10.9067    4.6330    1.1965 H         1 UNK         0.0000 
     87 H87        -6.7238    6.5320    2.3711 H         1 UNK         0.0000 
     88 H88        -3.5568    5.0691    2.9768 H         1 UNK         0.0000 
     89 H89        -4.9652    2.1260    2.2099 H         1 UNK         0.0000 
     90 H90        -2.4759    1.8587   -1.3352 H         1 UNK         0.0000 
     91 H91        -2.2093   -1.2558    1.0873 H         1 UNK         0.0000 
     92 H92        -0.7689   -2.2021    1.4491 H         1 UNK         0.0000 
     93 H93        -2.0515   -3.0355   -0.2587 H         1 UNK         0.0000 
     94 H94         1.3408   -0.5689   -0.9948 H         1 UNK         0.0000 
     95 H95         4.3725   -3.7625    0.1259 H         1 UNK         0.0000 
     96 H96         3.1557   -3.8969    1.3731 H         1 UNK         0.0000 
     97 H97         2.5704   -3.6574   -1.6668 H         1 UNK         0.0000 
     98 H98         1.4387   -4.2077   -0.4532 H         1 UNK         0.0000 
     99 H99         2.4317   -6.0414   -1.9577 H         1 UNK         0.0000 
    100 H100        2.7149   -6.3581   -0.2176 H         1 UNK         0.0000 
    101 H101        4.4459   -3.0552   -2.3712 H         1 UNK         0.0000 
    102 H102        5.7832   -3.5592   -3.4201 H         1 UNK         0.0000 
    103 H103        4.2009   -4.3121   -3.6457 H         1 UNK         0.0000 
    104 H104        3.9147   -0.5691    1.8328 H         1 UNK         0.0000 
    105 H105        6.9246   -4.2993    0.2643 H         1 UNK         0.0000 
    106 H106        5.9169   -3.7988    1.6390 H         1 UNK         0.0000 
    107 H107        8.0457   -2.5920    2.5359 H         1 UNK         0.0000 
    108 H108        8.9126   -3.2438    1.1112 H         1 UNK         0.0000 
    109 H109        9.4410   -4.6958    2.8755 H         1 UNK         0.0000 
    110 H110        7.7496   -4.7824    3.4155 H         1 UNK         0.0000 
    111 H111        5.4860   -7.2589    2.8016 H         1 UNK         0.0000 
    112 H112        6.8373   -8.1440    3.5997 H         1 UNK         0.0000 
    113 H113        6.5869   -6.4063    3.9121 H         1 UNK         0.0000 
    114 H114        8.2909   -1.1473    0.2101 H         1 UNK         0.0000 
    115 H115       11.2469   -1.6904   -2.9738 H         1 UNK         0.0000 
    116 H116        9.7997   -2.2181   -3.7010 H         1 UNK         0.0000 
    117 H117       11.5115   -3.7510   -1.2741 H         1 UNK         0.0000 
    118 H118        9.9513   -4.2957   -0.6446 H         1 UNK         0.0000 
    119 H119       11.0686   -4.3246   -3.4835 H         1 UNK         0.0000 
    120 H120        9.3440   -4.6559   -3.2820 H         1 UNK         0.0000 
    121 H121       11.0499   -6.6819   -3.4833 H         1 UNK         0.0000 
    122 H122       11.4801   -6.3260   -1.7763 H         1 UNK         0.0000 
    123 H123        9.7772  -10.2333   -2.1413 H         1 UNK         0.0000 
    124 H124       11.1585   -9.1395   -1.7104 H         1 UNK         0.0000 
    125 H125        9.9842   -9.6519   -0.4391 H         1 UNK         0.0000 
    126 H126       -1.6246    1.7582    3.5039 H         1 UNK         0.0000 
@<TRIPOS>BOND
     1    1   49 nc   
     2    1   51 nc   
     3    1   62 nc   
     4    1   64 nc   
     5    1   76 nc   
     6    1   78 nc   
     7    2    3 2    
     8    3    5 am   BACKBONE|DICT|INTERRES
     9    3    4 am   BACKBONE|DICT|INTERRES
    10    4   80 1    
    11    4   81 1    
    12    5    6 2    
    13    6    9 ar   
    14    6    7 ar   
    15    7    8 ar   
    16    7   82 1    
    17    8   13 ar   
    18    8   83 1    
    19    9   11 ar   
    20    9   10 1    
    21   10   86 1    
    22   10   84 1    
    23   10   85 1    
    24   11   12 2    
    25   11   13 ar   
    26   13   14 1    
    27   14   15 1    
    28   14   16 1    
    29   14   22 1    
    30   16   17 1    
    31   16   18 1    
    32   16   19 1    
    33   18   87 1    
    34   19   20 1    
    35   19   21 1    
    36   19   23 1    
    37   21   88 1    
    38   22   23 1    
    39   23   24 1    
    40   23   25 1    
    41   25   26 1    
    42   25   28 1    
    43   25   27 1    
    44   27   89 1    
    45   28   29 1    
    46   28   30 1    
    47   28   33 1    
    48   30   32 1    
    49   30   31 2    
    50   32  126 1    
    51   33   34 am   BACKBONE|DICT|INTERRES
    52   33   90 1    
    53   34   36 1    
    54   34   35 2    
    55   36   38 1    
    56   36   37 1    
    57   36   40 1    
    58   38   91 1    
    59   38   92 1    
    60   38   39 1    
    61   39   93 1    
    62   40   41 am   BACKBONE|DICT|INTERRES
    63   40   94 1    
    64   41   42 2    
    65   41   43 1    
    66   43   44 1    
    67   43   45 1    
    68   43   53 1    
    69   45   96 1    
    70   45   46 1    
    71   45   95 1    
    72   46   98 1    
    73   46   47 1    
    74   46   97 1    
    75   47  100 1    
    76   47   48 1    
    77   47   99 1    
    78   48   49 1    
    79   48   50 am   BACKBONE|DICT|INTERRES
    80   50   52 1    
    81   50   51 2    
    82   52  101 1    
    83   52  102 1    
    84   52  103 1    
    85   53  104 1    
    86   53   54 am   BACKBONE|DICT|INTERRES
    87   54   55 2    
    88   54   56 1    
    89   56   57 1    
    90   56   58 1    
    91   56   66 1    
    92   58  106 1    
    93   58   59 1    
    94   58  105 1    
    95   59   60 1    
    96   59  107 1    
    97   59  108 1    
    98   60  109 1    
    99   60  110 1    
   100   60   61 1    
   101   61   63 am   BACKBONE|DICT|INTERRES
   102   61   62 1    
   103   63   65 1    
   104   63   64 2    
   105   65  112 1    
   106   65  113 1    
   107   65  111 1    
   108   66  114 1    
   109   66   67 am   BACKBONE|DICT|INTERRES
   110   67   68 2    
   111   67   69 1    
   112   69   72 1    
   113   69   70 1    
   114   69   71 1    
   115   71  115 1    
   116   71  116 1    
   117   72  117 1    
   118   72  118 1    
   119   72   73 1    
   120   73   74 1    
   121   73  119 1    
   122   73  120 1    
   123   74   75 1    
   124   74  122 1    
   125   74  121 1    
   126   75   77 am   BACKBONE|DICT|INTERRES
   127   75   76 1    
   128   77   78 2    
   129   77   79 1    
   130   79  125 1    
   131   79  123 1    
   132   79  124 1    
@<TRIPOS>SUBSTRUCTURE
     1 UNK         1 GROUP             0       ****    0 ROOT    
