@<TRIPOS>MOLECULE
029_r2_c1
124   130    1
SMALL
USER_CHARGES


@<TRIPOS>ATOM
      1 Fe1        -2.1624    9.4664    0.9582 Fe        1 UNK         0.0000 
      2 C2          4.6720   -9.6661    0.0967 C.2       1 UNK         0.0000 
      3 C3          5.1994  -10.7713   -0.5513 C.2       1 UNK         0.0000 
      4 C4          4.6390  -12.0248   -0.3420 C.3       1 UNK         0.0000 
      5 N5          5.2010  -13.1417   -1.0257 N.3       1 UNK         0.0000 
      6 N6          3.5764  -12.1574    0.5168 N.am      1 UNK         0.0000 
      7 C7          2.9965  -13.4940    0.7559 C.3       1 UNK         0.0000 
      8 C8          3.0573  -11.0376    1.1603 C.2       1 UNK         0.0000 
      9 O9          2.1400  -11.1865    1.9469 O.2       1 UNK         0.0000 
     10 N10         3.5950   -9.7679    0.9341 N.am      1 UNK         0.0000 
     11 C11         3.1272   -8.4844    1.5547 C.3       1 UNK         0.0000 
     12 H12         3.9411   -8.1152    2.2173 H         1 UNK         0.0000 
     13 C13         1.8136   -8.5094    2.3742 C.3       1 UNK         0.0000 
     14 H14         1.9608   -9.0641    3.3296 H         1 UNK         0.0000 
     15 O15         0.7768   -9.1053    1.6296 O.3       1 UNK         0.0000 
     16 C16         1.4620   -7.0278    2.5937 C.3       1 UNK         0.0000 
     17 H17         0.4729   -6.8889    3.0871 H         1 UNK         0.0000 
     18 O18         2.4554   -6.4012    3.3656 O.3       1 UNK         0.0000 
     19 S19         2.8990   -7.1404    0.3093 S.3       1 UNK         0.0000 
     20 C20         1.4350   -6.4465    1.1702 C.3       1 UNK         0.0000 
     21 H21         0.5652   -6.8999    0.6436 H         1 UNK         0.0000 
     22 C22         1.2275   -4.8932    1.0732 C.3       1 UNK         0.0000 
     23 H23         0.2290   -4.7235    1.5325 H         1 UNK         0.0000 
     24 O24         2.1670   -4.1538    1.8121 O.3       1 UNK         0.0000 
     25 C25         1.1500   -4.4193   -0.4084 C.3       1 UNK         0.0000 
     26 H26         0.5825   -5.2194   -0.9405 H         1 UNK         0.0000 
     27 C27         2.4925   -4.3030   -1.0966 C.2       1 UNK         0.0000 
     28 O28         3.3993   -3.3932   -0.6921 O.3       1 UNK         0.0000 
     29 O29         2.7521   -5.0188   -2.0515 O.2       1 UNK         0.0000 
     30 N30         0.3710   -3.2055   -0.6339 N.am      1 UNK         0.0000 
     31 C31         0.6135   -1.9153   -0.2347 C.2       1 UNK         0.0000 
     32 O32         1.5160   -1.6383    0.5400 O.2       1 UNK         0.0000 
     33 C33        -0.2506   -0.8377   -0.8830 C.3       1 UNK         0.0000 
     34 H34        -1.3160   -1.1317   -0.7497 H         1 UNK         0.0000 
     35 C35         0.0605   -0.8634   -2.4053 C.3       1 UNK         0.0000 
     36 O36        -0.7645    0.0403   -3.0888 O.3       1 UNK         0.0000 
     37 N37        -0.1112    0.5463   -0.4107 N.am      1 UNK         0.0000 
     38 C38        -0.8328    1.0554    0.6395 C.2       1 UNK         0.0000 
     39 O39        -1.2932    0.3131    1.4948 O.2       1 UNK         0.0000 
     40 C40        -1.2969    2.5326    0.5804 C.3       1 UNK         0.0000 
     41 H41        -1.8973    2.7445    1.4910 H         1 UNK         0.0000 
     42 C42        -0.0151    3.4534    0.5798 C.3       1 UNK         0.0000 
     43 C43        -0.0925    4.9959    0.7408 C.3       1 UNK         0.0000 
     44 C44        -0.6633    5.5267    2.0895 C.3       1 UNK         0.0000 
     45 N45        -0.7684    6.9903    2.0796 N.am      1 UNK         0.0000 
     46 O46        -1.4294    7.7377    1.2184 O.co2     1 UNK         0.0000 
     47 C47        -0.3328    7.9685    2.7796 C.2       1 UNK         0.0000 
     48 O48        -0.7913    8.9764    2.2456 O.co2     1 UNK         0.0000 
     49 C49         0.5426    7.9289    3.9922 C.3       1 UNK         0.0000 
     50 N50        -2.2005    2.5514   -0.6044 N.am      1 UNK         0.0000 
     51 C51        -3.0823    3.4590   -1.1369 C.2       1 UNK         0.0000 
     52 O52        -3.7495    3.0966   -2.0996 O.2       1 UNK         0.0000 
     53 C53        -3.2993    4.8785   -0.6959 C.3       1 UNK         0.0000 
     54 H54        -2.6605    5.0870    0.1658 H         1 UNK         0.0000 
     55 C55        -2.8693    5.7674   -1.8936 C.3       1 UNK         0.0000 
     56 C56        -3.0928    7.2413   -1.6113 C.3       1 UNK         0.0000 
     57 C57        -2.2391    8.1571   -2.5096 C.3       1 UNK         0.0000 
     58 N58        -2.1371    9.4837   -1.9211 N.am      1 UNK         0.0000 
     59 O59        -1.6516    9.8312   -0.7038 O.co2     1 UNK         0.0000 
     60 C60        -2.9233   10.2050   -1.7050 C.2       1 UNK         0.0000 
     61 O61        -2.4867   10.4752   -0.5922 O.co2     1 UNK         0.0000 
     62 C62        -4.3376   10.3100   -2.2035 C.3       1 UNK         0.0000 
     63 N63        -4.6960    5.1477   -0.3362 N.am      1 UNK         0.0000 
     64 C64        -5.0586    5.6483    0.8913 C.2       1 UNK         0.0000 
     65 O65        -4.2059    5.8183    1.7517 O.2       1 UNK         0.0000 
     66 C66        -6.4975    6.0137    1.2663 C.3       1 UNK         0.0000 
     67 H67        -6.7609    5.3587    2.1263 H         1 UNK         0.0000 
     68 N68        -7.4495    5.7367    0.1875 N.3       1 UNK         0.0000 
     69 C69        -6.6017    7.4875    1.7757 C.3       1 UNK         0.0000 
     70 C70        -6.3853    8.5537    0.6785 C.3       1 UNK         0.0000 
     71 C71        -6.1220    9.9934    1.1979 C.3       1 UNK         0.0000 
     72 N72        -4.7477   10.1376    1.6504 N.am      1 UNK         0.0000 
     73 O73        -3.7592    9.2568    1.6321 O.co2     1 UNK         0.0000 
     74 C74        -3.9652   11.0927    1.9220 C.2       1 UNK         0.0000 
     75 O75        -2.8563   10.5209    1.9491 O.co2     1 UNK         0.0000 
     76 C76        -4.2458   12.5586    1.9916 C.3       1 UNK         0.0000 
     77 H77         5.1409   -8.7081   -0.0931 H         1 UNK         0.0000 
     78 H78         6.0448  -10.6484   -1.2174 H         1 UNK         0.0000 
     79 H79         4.8390  -14.0983   -0.9165 H         1 UNK         0.0000 
     80 H80         5.9998  -13.0136   -1.6644 H         1 UNK         0.0000 
     81 H81         2.6144  -13.9174   -0.1976 H         1 UNK         0.0000 
     82 H82         2.1462  -13.4816    1.4682 H         1 UNK         0.0000 
     83 H83         3.7683  -14.1707    1.1815 H         1 UNK         0.0000 
     84 H84         0.0294   -9.2697    2.2624 H         1 UNK         0.0000 
     85 H85         2.3679   -6.7608    4.2867 H         1 UNK         0.0000 
     86 H86         3.0668   -4.5148    1.6029 H         1 UNK         0.0000 
     87 H87        -0.4462   -3.3504   -1.2478 H         1 UNK         0.0000 
     88 H88         1.1317   -0.5800   -2.5450 H         1 UNK         0.0000 
     89 H89        -0.0928   -1.8712   -2.8445 H         1 UNK         0.0000 
     90 H90        -0.3536    0.1661   -3.9842 H         1 UNK         0.0000 
     91 H91         0.2263    1.2292   -1.1049 H         1 UNK         0.0000 
     92 H92         0.6240    3.1136    1.4249 H         1 UNK         0.0000 
     93 H93         0.5524    3.2648   -0.3546 H         1 UNK         0.0000 
     94 H94         0.9425    5.3948    0.6591 H         1 UNK         0.0000 
     95 H95        -0.6227    5.4009   -0.1302 H         1 UNK         0.0000 
     96 H96        -0.0233    5.1831    2.9283 H         1 UNK         0.0000 
     97 H97        -1.6771    5.1084    2.2426 H         1 UNK         0.0000 
     98 H98         1.4727    8.5008    3.7934 H         1 UNK         0.0000 
     99 H99         0.0072    8.3893    4.8482 H         1 UNK         0.0000 
    100 H100        0.8136    6.8873    4.2574 H         1 UNK         0.0000 
    101 H101       -2.2589    1.6580   -1.1239 H         1 UNK         0.0000 
    102 H102       -1.7866    5.5755   -2.0577 H         1 UNK         0.0000 
    103 H103       -3.4018    5.5153   -2.8373 H         1 UNK         0.0000 
    104 H104       -2.8084    7.4058   -0.5802 H         1 UNK         0.0000 
    105 H105       -4.1699    7.4849   -1.6653 H         1 UNK         0.0000 
    106 H106       -2.6454    8.1875   -3.5436 H         1 UNK         0.0000 
    107 H107       -1.2020    7.7596   -2.5546 H         1 UNK         0.0000 
    108 H108       -4.3627   10.1730   -3.3049 H         1 UNK         0.0000 
    109 H109       -4.7343   11.3175   -1.9611 H         1 UNK         0.0000 
    110 H110       -4.9910    9.5598   -1.7293 H         1 UNK         0.0000 
    111 H111       -5.4124    4.9935   -1.0598 H         1 UNK         0.0000 
    112 H112       -7.2530    6.3351   -0.6464 H         1 UNK         0.0000 
    113 H113       -8.4204    5.9368    0.5207 H         1 UNK         0.0000 
    114 H114       -7.5993    7.6681    2.2314 H         1 UNK         0.0000 
    115 H115       -5.8743    7.5977    2.5995 H         1 UNK         0.0000 
    116 H116       -5.5317    8.2667    0.0364 H         1 UNK         0.0000 
    117 H117       -7.2977    8.5583    0.0444 H         1 UNK         0.0000 
    118 H118       -6.2433   10.6753    0.3281 H         1 UNK         0.0000 
    119 H119       -6.8499   10.2936    1.9801 H         1 UNK         0.0000 
    120 H120       -5.3268   12.7550    1.8346 H         1 UNK         0.0000 
    121 H121       -3.6684   13.0769    1.1968 H         1 UNK         0.0000 
    122 H122       -3.9394   12.9515    2.9820 H         1 UNK         0.0000 
    123 H123        3.9516  -11.8592   -1.1716 H         1 UNK         0.0000 
    124 H124        4.1864   -3.4608   -1.2376 H         1 UNK         0.0000 
@<TRIPOS>BOND
     1    1   46 nc   
     2    1   48 nc   
     3    1   59 nc   
     4    1   61 nc   
     5    1   73 nc   
     6    1   75 nc   
     7    2   10 1    
     8    2    3 2    
     9    2   77 1    
    10    3    4 1    
    11    3   78 1    
    12    4    5 1    
    13    4    6 1    
    14    4  123 1    
    15    5   79 1    
    16    5   80 1    
    17    6    7 1    
    18    6    8 am   BACKBONE|DICT|INTERRES
    19    7   83 1    
    20    7   82 1    
    21    7   81 1    
    22    8    9 2    
    23    8   10 am   BACKBONE|DICT|INTERRES
    24   10   11 1    
    25   11   12 1    
    26   11   13 1    
    27   11   19 1    
    28   13   16 1    
    29   13   14 1    
    30   13   15 1    
    31   15   84 1    
    32   16   17 1    
    33   16   18 1    
    34   16   20 1    
    35   18   85 1    
    36   19   20 1    
    37   20   21 1    
    38   20   22 1    
    39   22   23 1    
    40   22   24 1    
    41   22   25 1    
    42   24   86 1    
    43   25   26 1    
    44   25   27 1    
    45   25   30 1    
    46   27   28 1    
    47   27   29 2    
    48   28  124 1    
    49   30   31 am   BACKBONE|DICT|INTERRES
    50   30   87 1    
    51   31   32 2    
    52   31   33 1    
    53   33   34 1    
    54   33   37 1    
    55   33   35 1    
    56   35   36 1    
    57   35   88 1    
    58   35   89 1    
    59   36   90 1    
    60   37   38 am   BACKBONE|DICT|INTERRES
    61   37   91 1    
    62   38   39 2    
    63   38   40 1    
    64   40   41 1    
    65   40   42 1    
    66   40   50 1    
    67   42   43 1    
    68   42   92 1    
    69   42   93 1    
    70   43   44 1    
    71   43   94 1    
    72   43   95 1    
    73   44   97 1    
    74   44   96 1    
    75   44   45 1    
    76   45   47 am   BACKBONE|DICT|INTERRES
    77   45   46 1    
    78   47   49 1    
    79   47   48 2    
    80   49  100 1    
    81   49   99 1    
    82   49   98 1    
    83   50   51 am   BACKBONE|DICT|INTERRES
    84   50  101 1    
    85   51   53 1    
    86   51   52 2    
    87   53   63 1    
    88   53   54 1    
    89   53   55 1    
    90   55   56 1    
    91   55  102 1    
    92   55  103 1    
    93   56  104 1    
    94   56   57 1    
    95   56  105 1    
    96   57   58 1    
    97   57  106 1    
    98   57  107 1    
    99   58   60 am   BACKBONE|DICT|INTERRES
   100   58   59 1    
   101   60   61 2    
   102   60   62 1    
   103   62  109 1    
   104   62  110 1    
   105   62  108 1    
   106   63   64 am   BACKBONE|DICT|INTERRES
   107   63  111 1    
   108   64   66 1    
   109   64   65 2    
   110   66   69 1    
   111   66   67 1    
   112   66   68 1    
   113   68  113 1    
   114   68  112 1    
   115   69  114 1    
   116   69  115 1    
   117   69   70 1    
   118   70   71 1    
   119   70  116 1    
   120   70  117 1    
   121   71   72 1    
   122   71  119 1    
   123   71  118 1    
   124   72   74 am   BACKBONE|DICT|INTERRES
   125   72   73 1    
   126   74   75 2    
   127   74   76 1    
   128   76  122 1    
   129   76  120 1    
   130   76  121 1    
@<TRIPOS>SUBSTRUCTURE
     1 UNK         1 GROUP             0       ****    0 ROOT    
