@<TRIPOS>MOLECULE
277_c1
148   159    1
SMALL
USER_CHARGES


@<TRIPOS>ATOM
      1 Fe1         0.0146    0.0448    0.0586 Fe        1 UNK         0.0000 
      2 O2          0.1130    2.1787    0.3337 O.co2     1 UNK         0.0000 
      3 C3          1.3245    2.6203    0.3616 C.2       1 UNK         0.0000 
      4 C4          1.6060    3.9621    0.3530 C.2       1 UNK         0.0000 
      5 C5          0.5535    5.0636    0.2276 C.3       1 UNK         0.0000 
      6 N6          2.8696    4.4982    0.4757 N.2       1 UNK         0.0000 
      7 C7          3.8458    3.6749    0.2738 C.2       1 UNK         0.0000 
      8 O8          5.1680    4.0902    0.3135 O.3       1 UNK         0.0000 
      9 C9          5.4246    5.4885    0.4311 C.3       1 UNK         0.0000 
     10 C10         3.6845    2.1814   -0.1438 C.3       1 UNK         0.0000 
     11 N11         2.3771    1.6832    0.3653 N.pl3     1 UNK         0.0000 
     12 O12         2.2566    0.3607    0.2019 O.co2     1 UNK         0.0000 
     13 C13         4.9235    1.2358    0.1107 C.3       1 UNK         0.0000 
     14 C14         5.1399    0.4164   -1.1484 C.ar      1 UNK         0.0000 
     15 C15         4.8538   -0.9180   -1.3409 C.ar      1 UNK         0.0000 
     16 N16         4.9719   -1.2397   -2.6705 N.pl3     1 UNK         0.0000 
     17 H17         4.6560   -2.1321   -3.0169 H         1 UNK         0.0000 
     18 C18         5.2955   -0.1096   -3.3955 C.ar      1 UNK         0.0000 
     19 C19         5.3915    0.9581   -2.4544 C.ar      1 UNK         0.0000 
     20 C20         5.4738    0.0916   -4.7803 C.ar      1 UNK         0.0000 
     21 C21         5.7005    1.4134   -5.1902 C.ar      1 UNK         0.0000 
     22 C22         5.7692    2.4761   -4.2928 C.ar      1 UNK         0.0000 
     23 C23         5.6422    2.2572   -2.9234 C.ar      1 UNK         0.0000 
     24 C24         5.4222   -0.9975   -5.8360 C.3       1 UNK         0.0000 
     25 C25         4.3719   -0.7846   -6.9170 C.2       1 UNK         0.0000 
     26 C26         4.2085   -1.5727   -7.9950 C.2       1 UNK         0.0000 
     27 C27         5.0595   -2.8115   -8.2351 C.3       1 UNK         0.0000 
     28 C28         3.1584   -1.2837   -9.0526 C.3       1 UNK         0.0000 
     29 H29        -0.4501    4.6447    0.1132 H         1 UNK         0.0000 
     30 H30         0.5702    5.6824    1.1223 H         1 UNK         0.0000 
     31 H31         0.7539    5.6731   -0.6534 H         1 UNK         0.0000 
     32 H32         4.9825    5.9257    1.3285 H         1 UNK         0.0000 
     33 H33         6.5073    5.6279    0.4923 H         1 UNK         0.0000 
     34 H34         5.0756    6.0285   -0.4528 H         1 UNK         0.0000 
     35 H35         5.8356    1.7693    0.3538 H         1 UNK         0.0000 
     36 H36         4.7310    0.5922    0.9730 H         1 UNK         0.0000 
     37 H37         4.4063   -1.6008   -0.6277 H         1 UNK         0.0000 
     38 H38         5.8010    1.6358   -6.2449 H         1 UNK         0.0000 
     39 H39         5.8959    3.4855   -4.6602 H         1 UNK         0.0000 
     40 H40         5.6504    3.0751   -2.2194 H         1 UNK         0.0000 
     41 H41         5.2254   -1.9549   -5.3537 H         1 UNK         0.0000 
     42 H42         6.4085   -1.0633   -6.2971 H         1 UNK         0.0000 
     43 H43         3.7219    0.0706   -6.7751 H         1 UNK         0.0000 
     44 H44         6.1152   -2.5453   -8.2773 H         1 UNK         0.0000 
     45 H45         4.9091   -3.5225   -7.4222 H         1 UNK         0.0000 
     46 H46         4.7956   -3.3118   -9.1657 H         1 UNK         0.0000 
     47 H47         3.6331   -1.1324  -10.0223 H         1 UNK         0.0000 
     48 H48         2.5868   -0.3826   -8.8170 H         1 UNK         0.0000 
     49 H49         2.4556   -2.1136   -9.1289 H         1 UNK         0.0000 
     50 O50        -0.0665   -2.1238    0.0845 O.co2     1 UNK         0.0000 
     51 C51         0.0788   -2.5625    1.2932 C.2       1 UNK         0.0000 
     52 C52         0.2308   -3.8931    1.6017 C.2       1 UNK         0.0000 
     53 C53         0.1775   -5.0317    0.5843 C.3       1 UNK         0.0000 
     54 N54         0.4460   -4.3940    2.8706 N.2       1 UNK         0.0000 
     55 C55         0.2324   -3.5706    3.8442 C.2       1 UNK         0.0000 
     56 O56         0.2759   -3.9637    5.1698 O.3       1 UNK         0.0000 
     57 C57         0.2996   -5.3595    5.4585 C.3       1 UNK         0.0000 
     58 C58        -0.2728   -2.1169    3.6878 C.3       1 UNK         0.0000 
     59 N59         0.0469   -1.6030    2.3315 N.pl3     1 UNK         0.0000 
     60 O60        -0.5338   -0.4156    2.2134 O.co2     1 UNK         0.0000 
     61 C61         0.0319   -1.1157    4.8747 C.3       1 UNK         0.0000 
     62 C62        -1.2146   -0.2746    5.1131 C.ar      1 UNK         0.0000 
     63 C63        -1.3857    1.0661    4.8273 C.ar      1 UNK         0.0000 
     64 N64        -2.7144    1.4018    4.9039 N.pl3     1 UNK         0.0000 
     65 H65        -3.0489    2.2835    4.5455 H         1 UNK         0.0000 
     66 C66        -3.4582    0.2833    5.2202 C.ar      1 UNK         0.0000 
     67 C67        -2.5331   -0.7944    5.3492 C.ar      1 UNK         0.0000 
     68 C68        -4.8490    0.1009    5.3628 C.ar      1 UNK         0.0000 
     69 C69        -5.2831   -1.2138    5.5845 C.ar      1 UNK         0.0000 
     70 C70        -4.4015   -2.2871    5.6803 C.ar      1 UNK         0.0000 
     71 C71        -3.0270   -2.0856    5.5972 C.ar      1 UNK         0.0000 
     72 C72        -5.8868    1.2036    5.2713 C.3       1 UNK         0.0000 
     73 C73        -6.9398    0.9969    4.1915 C.2       1 UNK         0.0000 
     74 C74        -7.9927    1.8080    3.9839 C.2       1 UNK         0.0000 
     75 C75        -8.2244    3.0639    4.8114 C.3       1 UNK         0.0000 
     76 C76        -9.0268    1.5320    2.9073 C.3       1 UNK         0.0000 
     77 H77         0.0969   -4.6516   -0.4361 H         1 UNK         0.0000 
     78 H78         1.0734   -5.6443    0.6559 H         1 UNK         0.0000 
     79 H79        -0.6980   -5.6470    0.7832 H         1 UNK         0.0000 
     80 H80         1.1862   -5.8516    5.0569 H         1 UNK         0.0000 
     81 H81         0.3181   -5.4670    6.5480 H         1 UNK         0.0000 
     82 H82        -0.6055   -5.8592    5.1020 H         1 UNK         0.0000 
     83 H83         0.3191   -1.6100    5.7954 H         1 UNK         0.0000 
     84 H84         0.8800   -0.4860    4.6007 H         1 UNK         0.0000 
     85 H85        -0.6640    1.7379    4.3764 H         1 UNK         0.0000 
     86 H86        -6.3429   -1.4218    5.6554 H         1 UNK         0.0000 
     87 H87        -4.7828   -3.2926    5.7854 H         1 UNK         0.0000 
     88 H88        -2.3356   -2.9132    5.6188 H         1 UNK         0.0000 
     89 H89        -5.3840    2.1518    5.0798 H         1 UNK         0.0000 
     90 H90        -6.3748    1.2864    6.2432 H         1 UNK         0.0000 
     91 H91        -6.7976    0.1276    3.5618 H         1 UNK         0.0000 
     92 H92        -8.3084    2.8116    5.8689 H         1 UNK         0.0000 
     93 H93        -7.3897    3.7531    4.6802 H         1 UNK         0.0000 
     94 H94        -9.1343    3.5838    4.5139 H         1 UNK         0.0000 
     95 H95       -10.0102    1.4027    3.3595 H         1 UNK         0.0000 
     96 H96        -8.7949    0.6228    2.3479 H         1 UNK         0.0000 
     97 H97        -9.0723    2.3601    2.2001 H         1 UNK         0.0000 
     98 O98        -2.1514    0.2411   -0.1464 O.co2     1 UNK         0.0000 
     99 C99        -2.5612    0.2441   -1.3639 C.2       1 UNK         0.0000 
    100 C100       -3.8900    0.1795   -1.6843 C.2       1 UNK         0.0000 
    101 C101       -5.0250    0.0484   -0.6638 C.3       1 UNK         0.0000 
    102 N102       -4.3907    0.2262   -2.9668 N.2       1 UNK         0.0000 
    103 C103       -3.5325    0.0154   -3.9079 C.2       1 UNK         0.0000 
    104 O104       -3.9110   -0.0447   -5.2400 O.3       1 UNK         0.0000 
    105 C105       -5.3054   -0.0016   -5.5522 C.3       1 UNK         0.0000 
    106 C106       -2.0279   -0.3308   -3.6852 C.3       1 UNK         0.0000 
    107 N107       -1.5913    0.2365   -2.3826 N.pl3     1 UNK         0.0000 
    108 O108       -0.2688    0.1749   -2.2087 O.co2     1 UNK         0.0000 
    109 C109       -1.0547   -0.0869   -4.9027 C.3       1 UNK         0.0000 
    110 C110       -0.1661   -1.3112   -5.0338 C.ar      1 UNK         0.0000 
    111 C111        1.1730   -1.4190   -4.7221 C.ar      1 UNK         0.0000 
    112 N112        1.5594   -2.7353   -4.7688 N.pl3     1 UNK         0.0000 
    113 H113        2.4605   -3.0209   -4.4216 H         1 UNK         0.0000 
    114 C114        0.4726   -3.5330   -5.0663 C.ar      1 UNK         0.0000 
    115 C115       -0.6379   -2.6541   -5.2269 C.ar      1 UNK         0.0000 
    116 C116        0.3420   -4.9341   -5.1691 C.ar      1 UNK         0.0000 
    117 C117       -0.9553   -5.4202   -5.3809 C.ar      1 UNK         0.0000 
    118 C118       -2.0592   -4.5823   -5.5110 C.ar      1 UNK         0.0000 
    119 C119       -1.9085   -3.1995   -5.4680 C.ar      1 UNK         0.0000 
    120 C120        1.4773   -5.9337   -5.0410 C.3       1 UNK         0.0000 
    121 C121        1.3003   -6.9544   -3.9245 C.2       1 UNK         0.0000 
    122 C122        2.1431   -7.9722   -3.6709 C.2       1 UNK         0.0000 
    123 C123        3.4099   -8.1989   -4.4822 C.3       1 UNK         0.0000 
    124 C124        1.8933   -8.9668   -2.5508 C.3       1 UNK         0.0000 
    125 H125       -4.6317    0.0042    0.3541 H         1 UNK         0.0000 
    126 H126       -5.6897    0.9071   -0.7386 H         1 UNK         0.0000 
    127 H127       -5.5812   -0.8723   -0.8402 H         1 UNK         0.0000 
    128 H128       -5.7946    0.8961   -5.1702 H         1 UNK         0.0000 
    129 H129       -5.4137    0.0003   -6.6432 H         1 UNK         0.0000 
    130 H130       -5.8204   -0.8893   -5.1761 H         1 UNK         0.0000 
    131 H131       -1.5694    0.0813   -5.8406 H         1 UNK         0.0000 
    132 H132       -0.4625    0.8165   -4.7348 H         1 UNK         0.0000 
    133 H133        1.8186   -0.6504   -4.3108 H         1 UNK         0.0000 
    134 H134       -1.1261   -6.4876   -5.4190 H         1 UNK         0.0000 
    135 H135       -3.0494   -5.0035   -5.6151 H         1 UNK         0.0000 
    136 H136       -2.7593   -2.5383   -5.5210 H         1 UNK         0.0000 
    137 H137        2.4101   -5.3971   -4.8686 H         1 UNK         0.0000 
    138 H138        1.5758   -6.4539   -5.9943 H         1 UNK         0.0000 
    139 H139        0.4233   -6.8182   -3.3038 H         1 UNK         0.0000 
    140 H140        3.1639   -8.3375   -5.5353 H         1 UNK         0.0000 
    141 H141        4.0710   -7.3371   -4.3858 H         1 UNK         0.0000 
    142 H142        3.9566   -9.0784   -4.1429 H         1 UNK         0.0000 
    143 H143        1.8046   -9.9761   -2.9546 H         1 UNK         0.0000 
    144 H144        0.9711   -8.7403   -2.0108 H         1 UNK         0.0000 
    145 H145        2.7140   -8.9444   -1.8340 H         1 UNK         0.0000 
    146 H146        3.5082    2.2400   -1.2181 H         1 UNK         0.0000 
    147 H147       -1.3462   -2.2592    3.6143 H         1 UNK         0.0000 
    148 H148       -2.0573   -1.3946   -3.4730 H         1 UNK         0.0000 
@<TRIPOS>BOND
     1    1    2 nc   
     2    1   12 nc   
     3    1   50 nc   
     4    1   60 nc   
     5    1   98 nc   
     6    1  108 nc   
     7    2    3 1    
     8    3    4 2    
     9    3   11 1    
    10    4    5 1    
    11    4    6 1    
    12    5   30 1    
    13    5   29 1    
    14    5   31 1    
    15    6    7 2    
    16    7    8 1    
    17    7   10 1    
    18    8    9 1    
    19    9   33 1    
    20    9   32 1    
    21    9   34 1    
    22   10   13 1    
    23   10   11 1    
    24   10  146 1    
    25   11   12 1    
    26   13   35 1    
    27   13   36 1    
    28   13   14 1    
    29   14   15 ar   
    30   14   19 ar   
    31   15   37 1    
    32   15   16 ar   
    33   16   17 1    
    34   16   18 ar   
    35   18   19 ar   
    36   18   20 ar   
    37   19   23 ar   
    38   20   21 ar   
    39   20   24 1    
    40   21   22 ar   
    41   21   38 1    
    42   22   23 ar   
    43   22   39 1    
    44   23   40 1    
    45   24   41 1    
    46   24   25 1    
    47   24   42 1    
    48   25   43 1    
    49   25   26 2    
    50   26   27 1    
    51   26   28 1    
    52   27   45 1    
    53   27   44 1    
    54   27   46 1    
    55   28   48 1    
    56   28   47 1    
    57   28   49 1    
    58   50   51 1    
    59   51   52 2    
    60   51   59 1    
    61   52   54 1    
    62   52   53 1    
    63   53   78 1    
    64   53   79 1    
    65   53   77 1    
    66   54   55 2    
    67   55   56 1    
    68   55   58 1    
    69   56   57 1    
    70   57   81 1    
    71   57   80 1    
    72   57   82 1    
    73   58   61 1    
    74   58   59 1    
    75   58  147 1    
    76   59   60 1    
    77   61   62 1    
    78   61   83 1    
    79   61   84 1    
    80   62   67 ar   
    81   62   63 ar   
    82   63   64 ar   
    83   63   85 1    
    84   64   66 ar   
    85   64   65 1    
    86   66   67 ar   
    87   66   68 ar   
    88   67   71 ar   
    89   68   69 ar   
    90   68   72 1    
    91   69   70 ar   
    92   69   86 1    
    93   70   87 1    
    94   70   71 ar   
    95   71   88 1    
    96   72   90 1    
    97   72   73 1    
    98   72   89 1    
    99   73   74 2    
   100   73   91 1    
   101   74   75 1    
   102   74   76 1    
   103   75   92 1    
   104   75   93 1    
   105   75   94 1    
   106   76   95 1    
   107   76   96 1    
   108   76   97 1    
   109   98   99 1    
   110   99  100 2    
   111   99  107 1    
   112  100  101 1    
   113  100  102 1    
   114  101  125 1    
   115  101  126 1    
   116  101  127 1    
   117  102  103 2    
   118  103  106 1    
   119  103  104 1    
   120  104  105 1    
   121  105  130 1    
   122  105  128 1    
   123  105  129 1    
   124  106  109 1    
   125  106  107 1    
   126  106  148 1    
   127  107  108 1    
   128  109  132 1    
   129  109  110 1    
   130  109  131 1    
   131  110  111 ar   
   132  110  115 ar   
   133  111  133 1    
   134  111  112 ar   
   135  112  113 1    
   136  112  114 ar   
   137  114  115 ar   
   138  114  116 ar   
   139  115  119 ar   
   140  116  120 1    
   141  116  117 ar   
   142  117  118 ar   
   143  117  134 1    
   144  118  119 ar   
   145  118  135 1    
   146  119  136 1    
   147  120  137 1    
   148  120  121 1    
   149  120  138 1    
   150  121  122 2    
   151  121  139 1    
   152  122  124 1    
   153  122  123 1    
   154  123  141 1    
   155  123  142 1    
   156  123  140 1    
   157  124  144 1    
   158  124  145 1    
   159  124  143 1    
@<TRIPOS>SUBSTRUCTURE
     1 UNK         1 GROUP             0       ****    0 ROOT    
