@<TRIPOS>MOLECULE
038_c1
90   98    1
SMALL
USER_CHARGES


@<TRIPOS>ATOM
      1 Fe1        -1.5650   -0.5932    1.3914 Fe        1 UNK         0.0000 
      2 C2         -1.8998    6.4468   -4.1767 C.ar      1 UNK         0.0000 
      3 C3         -2.4474    7.6425   -4.7450 C.ar      1 UNK         0.0000 
      4 C4         -2.1503    8.9083   -4.2096 C.ar      1 UNK         0.0000 
      5 C5         -1.2752    9.0045   -3.1309 C.ar      1 UNK         0.0000 
      6 C6         -0.7229    7.8226   -2.6026 C.ar      1 UNK         0.0000 
      7 C7         -1.0163    6.5363   -3.0646 C.ar      1 UNK         0.0000 
      8 N8          0.1058    7.7787   -1.5611 N.pl3     1 UNK         0.0000 
      9 H9          0.4541    8.6109   -1.0310 H         1 UNK         0.0000 
     10 C10         0.3449    6.4763   -1.2887 C.ar      1 UNK         0.0000 
     11 C11        -0.3311    5.6002   -2.1695 C.ar      1 UNK         0.0000 
     12 C12        -0.4537    4.0017   -1.8692 C.3       1 UNK         0.0000 
     13 C13        -0.5265    2.3574   -1.4474 C.3       1 UNK         0.0000 
     14 H14        -0.9817    1.9288   -2.3641 H         1 UNK         0.0000 
     15 C15        -1.6671    2.2565   -0.3807 C.2       1 UNK         0.0000 
     16 O16        -1.9343    1.1799    0.3564 O.co2     1 UNK         0.0000 
     17 O17        -2.4610    3.1783   -0.2625 O.co2     1 UNK         0.0000 
     18 N18         0.7104    1.4350   -1.2542 N.am      1 UNK         0.0000 
     19 C19         0.9364    0.1635   -0.5768 C.2       1 UNK         0.0000 
     20 O20         0.1124   -0.2977    0.2213 O.co2     1 UNK         0.0000 
     21 C21         2.3140   -0.7122   -0.7580 C.2       1 UNK         0.0000 
     22 C22         3.3730   -1.0697    0.4830 C.2       1 UNK         0.0000 
     23 C23         3.8422   -0.2571    1.8586 C.2       1 UNK         0.0000 
     24 C24         4.3237   -0.9501    3.2738 C.3       1 UNK         0.0000 
     25 C25         3.8799   -0.8239    4.8184 C.3       1 UNK         0.0000 
     26 N26         2.4767   -0.6451    5.1428 N.am      1 UNK         0.0000 
     27 C27         1.5093   -1.6029    5.2345 C.2       1 UNK         0.0000 
     28 O28         1.7554   -2.7845    5.0517 O.2       1 UNK         0.0000 
     29 C29         0.1268   -1.1062    5.4318 C.ar      1 UNK         0.0000 
     30 C30        -0.6988   -0.9077    4.3099 C.ar      1 UNK         0.0000 
     31 O31        -0.5615   -1.3683    3.0700 O.co2     1 UNK         0.0000 
     32 C32        -1.7786   -0.1582    4.3624 C.ar      1 UNK         0.0000 
     33 O33        -2.2477    0.0521    3.1327 O.co2     1 UNK         0.0000 
     34 C34        -2.2731    0.3537    5.5648 C.ar      1 UNK         0.0000 
     35 C35        -1.5483    0.1009    6.7421 C.ar      1 UNK         0.0000 
     36 C36        -0.3182   -0.5886    6.6724 C.ar      1 UNK         0.0000 
     37 N37         2.4849   -1.6961   -1.9838 N.am      1 UNK         0.0000 
     38 C38         2.6471   -2.6191   -3.1386 C.2       1 UNK         0.0000 
     39 O39         3.2999   -2.1218   -4.0577 O.2       1 UNK         0.0000 
     40 C40         2.4306   -4.2497   -3.5972 C.3       1 UNK         0.0000 
     41 H41         3.2752   -4.6365   -2.9803 H         1 UNK         0.0000 
     42 N42         2.9285   -4.4433   -5.0181 N.4       1 UNK         0.0000 
     43 H43         2.1485   -4.3647   -5.7105 H         1 UNK         0.0000 
     44 H44         3.7084   -3.8279   -5.3447 H         1 UNK         0.0000 
     45 H45         3.3721   -5.3844   -5.1649 H         1 UNK         0.0000 
     46 C46         1.4743   -5.5769   -3.3548 C.3       1 UNK         0.0000 
     47 C47         0.2036   -6.1680   -4.1651 C.3       1 UNK         0.0000 
     48 C48        -0.7136   -7.1442   -3.3221 C.3       1 UNK         0.0000 
     49 C49        -2.1860   -6.8124   -2.9288 C.3       1 UNK         0.0000 
     50 N50        -2.5839   -5.6024   -2.2060 N.am      1 UNK         0.0000 
     51 C51        -2.2062   -5.1276   -0.9712 C.2       1 UNK         0.0000 
     52 O52        -1.2329   -5.5756   -0.3858 O.2       1 UNK         0.0000 
     53 C53        -3.1280   -4.1167   -0.3225 C.ar      1 UNK         0.0000 
     54 C54        -2.8488   -2.8488    0.3033 C.ar      1 UNK         0.0000 
     55 O55        -1.8234   -2.0456    0.6158 O.co2     1 UNK         0.0000 
     56 C56        -3.7081   -2.1132    0.6588 C.ar      1 UNK         0.0000 
     57 O57        -2.9352   -1.0796    0.9524 O.co2     1 UNK         0.0000 
     58 C58        -5.0804   -2.3438    0.6624 C.ar      1 UNK         0.0000 
     59 C59        -5.4919   -3.5825    0.1561 C.ar      1 UNK         0.0000 
     60 C60        -4.5169   -4.4601   -0.3636 C.ar      1 UNK         0.0000 
     61 H61        -2.1753    5.5039   -4.6170 H         1 UNK         0.0000 
     62 H62        -3.1209    7.6122   -5.5966 H         1 UNK         0.0000 
     63 H63        -2.5957    9.8148   -4.6252 H         1 UNK         0.0000 
     64 H64        -1.0541    9.9822   -2.7077 H         1 UNK         0.0000 
     65 H65         0.9410    6.1802   -0.4416 H         1 UNK         0.0000 
     66 H66        -1.5274    4.0706   -2.1560 H         1 UNK         0.0000 
     67 H67        -0.1967    4.1979   -0.8075 H         1 UNK         0.0000 
     68 H68         1.4741    1.7108   -1.8905 H         1 UNK         0.0000 
     69 H69         5.2956   -0.4208    3.4668 H         1 UNK         0.0000 
     70 H70         4.7334   -1.9628    3.1027 H         1 UNK         0.0000 
     71 H71         4.3262   -1.6408    5.4417 H         1 UNK         0.0000 
     72 H72         4.3874    0.0643    5.2796 H         1 UNK         0.0000 
     73 H73         2.2042    0.3188    5.3948 H         1 UNK         0.0000 
     74 H74        -3.1801    0.9424    5.5859 H         1 UNK         0.0000 
     75 H75        -1.9071    0.4885    7.6876 H         1 UNK         0.0000 
     76 H76         0.2760   -0.6998    7.5724 H         1 UNK         0.0000 
     77 H77         2.1904   -6.3807   -3.7029 H         1 UNK         0.0000 
     78 H78         1.4961   -5.9633   -2.3215 H         1 UNK         0.0000 
     79 H79        -0.3246   -5.5422   -4.9138 H         1 UNK         0.0000 
     80 H80         0.6340   -6.9052   -4.9084 H         1 UNK         0.0000 
     81 H81        -0.9014   -8.0517   -3.9612 H         1 UNK         0.0000 
     82 H82        -0.1560   -7.5703   -2.4662 H         1 UNK         0.0000 
     83 H83        -2.7808   -6.8224   -3.8747 H         1 UNK         0.0000 
     84 H84        -2.5683   -7.6862   -2.3499 H         1 UNK         0.0000 
     85 H85        -3.3666   -5.1061   -2.6609 H         1 UNK         0.0000 
     86 H86        -5.7856   -1.6090    1.0265 H         1 UNK         0.0000 
     87 H87        -6.5410   -3.8477    0.1344 H         1 UNK         0.0000 
     88 H88        -4.8470   -5.4040   -0.7817 H         1 UNK         0.0000 
     89 H89         3.8478    0.8228    1.8724 H         1 UNK         0.0000 
     90 H90         3.7882   -2.0419    0.2620 H         1 UNK         0.0000 
@<TRIPOS>BOND
     1    1   16 nc   
     2    1   20 nc   
     3    1   31 nc   
     4    1   33 nc   
     5    1   55 nc   
     6    1   57 nc   
     7    2    7 ar   
     8    2    3 ar   
     9    2   61 1    
    10    3    4 ar   
    11    3   62 1    
    12    4    5 ar   
    13    4   63 1    
    14    5   64 1    
    15    5    6 ar   
    16    6    8 ar   
    17    6    7 ar   
    18    7   11 ar   
    19    8   10 ar   
    20    8    9 1    
    21   10   65 1    
    22   10   11 ar   
    23   11   12 1    
    24   12   13 1    
    25   12   67 1    
    26   12   66 1    
    27   13   14 1    
    28   13   18 1    
    29   13   15 1    
    30   15   17 2    
    31   15   16 1    
    32   18   19 am   BACKBONE|DICT|INTERRES
    33   18   68 1    
    34   19   20 2    
    35   19   21 1    
    36   21   22 1    
    37   21   37 2    
    38   22   23 2    
    39   22   90 1    
    40   23   24 1    
    41   23   89 1    
    42   24   69 1    
    43   24   25 1    
    44   24   70 1    
    45   25   26 1    
    46   25   72 1    
    47   25   71 1    
    48   26   27 am   BACKBONE|DICT|INTERRES
    49   26   73 1    
    50   27   29 1    
    51   27   28 2    
    52   29   36 ar   
    53   29   30 ar   
    54   30   32 ar   
    55   30   31 1    
    56   32   34 ar   
    57   32   33 1    
    58   34   74 1    
    59   34   35 ar   
    60   35   75 1    
    61   35   36 ar   
    62   36   76 1    
    63   37   38 am   BACKBONE|DICT|INTERRES
    64   38   39 2    
    65   38   40 1    
    66   40   46 1    
    67   40   41 1    
    68   40   42 1    
    69   42   43 1    
    70   42   44 1    
    71   42   45 1    
    72   46   78 1    
    73   46   47 1    
    74   46   77 1    
    75   47   48 1    
    76   47   79 1    
    77   47   80 1    
    78   48   49 1    
    79   48   82 1    
    80   48   81 1    
    81   49   84 1    
    82   49   50 1    
    83   49   83 1    
    84   50   51 am   BACKBONE|DICT|INTERRES
    85   50   85 1    
    86   51   52 2    
    87   51   53 1    
    88   53   54 ar   
    89   53   60 ar   
    90   54   55 1    
    91   54   56 ar   
    92   56   58 ar   
    93   56   57 1    
    94   58   86 1    
    95   58   59 ar   
    96   59   60 ar   
    97   59   87 1    
    98   60   88 1    
@<TRIPOS>SUBSTRUCTURE
     1 UNK         1 GROUP             0       ****    0 ROOT    
