@<TRIPOS>MOLECULE
083_c1
134   141    1
SMALL
USER_CHARGES


@<TRIPOS>ATOM
      1 C1        -12.4893   -5.4343    3.0053 C.3       1 UNK         0.0000 
      2 C2        -11.3560   -4.4895    2.5749 C.3       1 UNK         0.0000 
      3 C3        -11.5586   -3.0465    3.0800 C.3       1 UNK         0.0000 
      4 C4        -10.4850   -2.0490    2.5970 C.3       1 UNK         0.0000 
      5 C5         -9.0652   -2.3297    3.1437 C.3       1 UNK         0.0000 
      6 C6         -8.0117   -1.2721    2.7513 C.3       1 UNK         0.0000 
      7 C7         -7.7264   -1.2216    1.2284 C.3       1 UNK         0.0000 
      8 C8         -6.5916   -0.2643    0.8496 C.2       1 UNK         0.0000 
      9 O9         -5.4214   -0.5313    1.0953 O.2       1 UNK         0.0000 
     10 N10        -6.9343    0.8717    0.2319 N.am      1 UNK         0.0000 
     11 C11        -5.9853    1.9451   -0.1002 C.3       1 UNK         0.0000 
     12 H12        -5.0110    1.7449    0.3583 H         1 UNK         0.0000 
     13 C13        -6.4291    3.3279    0.4690 C.3       1 UNK         0.0000 
     14 H14        -5.6897    4.0754    0.1781 H         1 UNK         0.0000 
     15 O15        -7.6743    3.6968   -0.1120 O.3       1 UNK         0.0000 
     16 C16        -6.5473    3.2861    1.9916 C.ar      1 UNK         0.0000 
     17 C17        -7.6625    3.4246    2.8211 C.ar      1 UNK         0.0000 
     18 N18        -7.2102    3.2154    4.0958 N.pl3     1 UNK         0.0000 
     19 H19        -7.7540    3.2198    4.9549 H         1 UNK         0.0000 
     20 C20        -5.8687    2.9765    3.9645 C.ar      1 UNK         0.0000 
     21 N21        -5.4615    3.0406    2.7145 N.2       1 UNK         0.0000 
     22 C22        -5.7527    2.0065   -1.5942 C.2       1 UNK         0.0000 
     23 N23        -6.7589    2.3056   -2.4229 N.pl3     1 UNK         0.0000 
     24 H24        -7.6467    2.5430   -1.9837 H         1 UNK         0.0000 
     25 C25        -6.6378    2.3264   -3.8823 C.3       1 UNK         0.0000 
     26 C26        -5.2063    2.7953   -4.2178 C.3       1 UNK         0.0000 
     27 C27        -4.0570    2.0593   -3.4366 C.3       1 UNK         0.0000 
     28 H28        -3.7268    1.1471   -3.9358 H         1 UNK         0.0000 
     29 N29        -4.5330    1.7280   -2.0793 N.pl3     1 UNK         0.0000 
     30 C30        -2.8206    2.9774   -3.1979 C.2       1 UNK         0.0000 
     31 O31        -2.9728    4.1876   -3.0723 O.2       1 UNK         0.0000 
     32 N32        -1.6107    2.4215   -3.0117 N.am      1 UNK         0.0000 
     33 C33        -0.3199    3.1345   -2.9533 C.3       1 UNK         0.0000 
     34 H34        -0.1373    3.5058   -3.9651 H         1 UNK         0.0000 
     35 C35        -0.1979    4.3260   -1.9451 C.3       1 UNK         0.0000 
     36 C36        -0.0732    4.0171   -0.4246 C.3       1 UNK         0.0000 
     37 N37        -1.2657    3.2138    0.1014 N.4       1 UNK         0.0000 
     38 H38        -1.2522    2.2937   -0.3196 H         1 UNK         0.0000 
     39 H39        -1.1947    3.0979    1.1054 H         1 UNK         0.0000 
     40 H40        -2.1259    3.7019   -0.1068 H         1 UNK         0.0000 
     41 C41         0.7505    2.1040   -2.5964 C.2       1 UNK         0.0000 
     42 O42         0.4008    1.1414   -1.9140 O.2       1 UNK         0.0000 
     43 N43         1.9970    2.4017   -2.9589 N.am      1 UNK         0.0000 
     44 C44         3.1668    1.5413   -2.7689 C.3       1 UNK         0.0000 
     45 H45         2.8684    0.5217   -2.5182 H         1 UNK         0.0000 
     46 C46         3.9378    1.5365   -4.1108 C.3       1 UNK         0.0000 
     47 O47         3.0760    1.0860   -5.1398 O.3       1 UNK         0.0000 
     48 C48         4.0912    2.0162   -1.6257 C.2       1 UNK         0.0000 
     49 O49         5.1911    1.4599   -1.5192 O.co2     1 UNK         0.0000 
     50 N50         3.6578    3.0453   -0.8727 N.am      1 UNK         0.0000 
     51 C51         4.3005    3.7807    0.2438 C.3       1 UNK         0.0000 
     52 H52         3.7173    4.7060    0.1813 H         1 UNK         0.0000 
     53 C53         5.7427    4.4246   -0.0704 C.3       1 UNK         0.0000 
     54 O54         6.6991    3.6354   -0.7766 O.co2     1 UNK         0.0000 
     55 C55         3.6867    3.3186    1.6471 C.2       1 UNK         0.0000 
     56 O56         2.4953    3.6271    1.7655 O.2       1 UNK         0.0000 
     57 N57         4.1920    2.5813    2.6893 N.am      1 UNK         0.0000 
     58 C58         5.4948    1.9020    3.0852 C.3       1 UNK         0.0000 
     59 H59         5.3129    1.4248    4.0493 H         1 UNK         0.0000 
     60 C60         6.0446    0.7822    2.1248 C.3       1 UNK         0.0000 
     61 H61         6.9253    0.3090    2.5642 H         1 UNK         0.0000 
     62 C62         5.4140   -0.2764    1.2042 C.2       1 UNK         0.0000 
     63 O63         4.2779   -0.7328    1.4368 O.co2     1 UNK         0.0000 
     64 O64         6.1498   -0.3980    0.1433 O.co2     1 UNK         0.0000 
     65 O65         6.2903    1.8286    1.2664 O.co2     1 UNK         0.0000 
     66 C66         6.6999    2.9490    3.3137 C.2       1 UNK         0.0000 
     67 N67         6.3868    4.2123    3.6161 N.pl3     1 UNK         0.0000 
     68 H68         5.3893    4.3988    3.6276 H         1 UNK         0.0000 
     69 C69         7.3441    5.3185    3.8484 C.3       1 UNK         0.0000 
     70 C70         8.7286    5.0641    3.1627 C.3       1 UNK         0.0000 
     71 C71         8.9770    3.6407    2.5510 C.3       1 UNK         0.0000 
     72 H72         8.6904    3.7042    1.5140 H         1 UNK         0.0000 
     73 N73         8.0459    2.6802    3.1794 N.pl3     1 UNK         0.0000 
     74 C74        10.4537    3.0988    2.6540 C.2       1 UNK         0.0000 
     75 O75        11.0351    3.2950    3.7187 O.2       1 UNK         0.0000 
     76 N76        11.1847    2.4370    1.6936 N.am      1 UNK         0.0000 
     77 C77        11.0731    1.8657    0.2845 C.3       1 UNK         0.0000 
     78 H78        11.7721    2.4301   -0.3320 H         1 UNK         0.0000 
     79 C79        11.6422    0.4186    0.3578 C.2       1 UNK         0.0000 
     80 O80        11.0211   -0.6415    0.2106 O.2       1 UNK         0.0000 
     81 C81        13.1118    0.2607    0.7165 C.3       1 UNK         0.0000 
     82 C82         9.6922    2.0177   -0.4406 C.3       1 UNK         0.0000 
     83 H83         9.5640    3.0919   -0.6192 H         1 UNK         0.0000 
     84 C84         9.4090    1.4333   -1.8704 C.2       1 UNK         0.0000 
     85 O85        10.3581    1.4108   -2.6880 O.co2     1 UNK         0.0000 
     86 O86         8.1693    1.1585   -2.0935 O.co2     1 UNK         0.0000 
     87 O87         8.7677    1.4785    0.4601 O.co2     1 UNK         0.0000 
     88 H88       -12.5723   -5.4885    4.0914 H         1 UNK         0.0000 
     89 H89       -12.3160   -6.4469    2.6401 H         1 UNK         0.0000 
     90 H90       -13.4528   -5.1060    2.6142 H         1 UNK         0.0000 
     91 H91       -10.4091   -4.8851    2.9432 H         1 UNK         0.0000 
     92 H92       -11.2814   -4.4924    1.4857 H         1 UNK         0.0000 
     93 H93       -11.6000   -3.0403    4.1714 H         1 UNK         0.0000 
     94 H94       -12.5362   -2.6910    2.7467 H         1 UNK         0.0000 
     95 H95       -10.4764   -2.0469    1.5069 H         1 UNK         0.0000 
     96 H96       -10.7887   -1.0435    2.8952 H         1 UNK         0.0000 
     97 H97        -8.7243   -3.3109    2.8090 H         1 UNK         0.0000 
     98 H98        -9.1127   -2.3940    4.2329 H         1 UNK         0.0000 
     99 H99        -7.0878   -1.4994    3.2895 H         1 UNK         0.0000 
    100 H100       -8.3358   -0.2939    3.1154 H         1 UNK         0.0000 
    101 H101       -7.4442   -2.2132    0.8717 H         1 UNK         0.0000 
    102 H102       -8.6309   -0.9479    0.6878 H         1 UNK         0.0000 
    103 H103       -7.9172    1.0629    0.1216 H         1 UNK         0.0000 
    104 H104       -7.9755    4.5044    0.3296 H         1 UNK         0.0000 
    105 H105       -8.7106    3.6165    2.6259 H         1 UNK         0.0000 
    106 H106       -5.2716    2.7602    4.8428 H         1 UNK         0.0000 
    107 H107       -7.3949    2.9931   -4.2961 H         1 UNK         0.0000 
    108 H108       -6.8338    1.3180   -4.2541 H         1 UNK         0.0000 
    109 H109       -5.2003    3.8697   -4.0135 H         1 UNK         0.0000 
    110 H110       -5.0416    2.7221   -5.2941 H         1 UNK         0.0000 
    111 H111       -3.8929    1.2614   -1.4474 H         1 UNK         0.0000 
    112 H112       -1.4669    1.4158   -3.0693 H         1 UNK         0.0000 
    113 H113       -0.9599    5.0867   -2.1119 H         1 UNK         0.0000 
    114 H114        0.7124    4.8588   -2.2250 H         1 UNK         0.0000 
    115 H115       -0.0562    4.9253    0.1795 H         1 UNK         0.0000 
    116 H116        0.8037    3.4251   -0.1629 H         1 UNK         0.0000 
    117 H117        2.1782    3.1654   -3.5936 H         1 UNK         0.0000 
    118 H118        4.8084    0.8799   -4.0667 H         1 UNK         0.0000 
    119 H119        4.3177    2.5309   -4.3588 H         1 UNK         0.0000 
    120 H120        3.3274    0.1784   -5.3518 H         1 UNK         0.0000 
    121 H121        2.7545    3.3963   -1.0934 H         1 UNK         0.0000 
    122 H122        6.1391    4.8123    0.8719 H         1 UNK         0.0000 
    123 H123        5.5649    5.3603   -0.6016 H         1 UNK         0.0000 
    124 H124        3.4411    2.2567    3.2758 H         1 UNK         0.0000 
    125 H125        7.4701    5.4091    4.9302 H         1 UNK         0.0000 
    126 H126        6.8928    6.2522    3.4999 H         1 UNK         0.0000 
    127 H127        9.5166    5.3540    3.8632 H         1 UNK         0.0000 
    128 H128        8.8401    5.7829    2.3449 H         1 UNK         0.0000 
    129 H129        8.1709    1.7369    2.8054 H         1 UNK         0.0000 
    130 H130       12.1153    2.2840    2.0343 H         1 UNK         0.0000 
    131 H131       13.6050   -0.2872   -0.0871 H         1 UNK         0.0000 
    132 H132       13.1836   -0.3314    1.6300 H         1 UNK         0.0000 
    133 H133       13.6028    1.2178    0.8590 H         1 UNK         0.0000 
    134 Fe134       6.9306    1.5117   -0.4707 Fe        1 UNK         0.0000 
@<TRIPOS>BOND
     1    1    2 1    
     2    1   88 1    
     3    1   89 1    
     4    1   90 1    
     5    2    3 1    
     6    2   91 1    
     7    2   92 1    
     8    3    4 1    
     9    3   93 1    
    10    3   94 1    
    11    4    5 1    
    12    4   95 1    
    13    4   96 1    
    14    5    6 1    
    15    5   97 1    
    16    5   98 1    
    17    6    7 1    
    18    6   99 1    
    19    6  100 1    
    20    7    8 1    
    21    7  101 1    
    22    7  102 1    
    23    8    9 2    
    24    8   10 am   BACKBONE|DICT|INTERRES
    25   10  103 1    
    26   10   11 1    
    27   11   13 1    
    28   11   22 1    
    29   11   12 1    
    30   13   14 1    
    31   13   15 1    
    32   13   16 1    
    33   15  104 1    
    34   16   17 ar   
    35   16   21 ar   
    36   17   18 ar   
    37   17  105 1    
    38   18   19 1    
    39   18   20 ar   
    40   20   21 ar   
    41   20  106 1    
    42   22   23 2    
    43   22   29 1    
    44   23   24 1    
    45   23   25 1    
    46   25   26 1    
    47   25  107 1    
    48   25  108 1    
    49   26   27 1    
    50   26  109 1    
    51   26  110 1    
    52   27   29 1    
    53   27   30 1    
    54   27   28 1    
    55   29  111 1    
    56   30   31 2    
    57   30   32 am   BACKBONE|DICT|INTERRES
    58   32   33 1    
    59   32  112 1    
    60   33   34 1    
    61   33   35 1    
    62   33   41 1    
    63   35   36 1    
    64   35  113 1    
    65   35  114 1    
    66   36   37 1    
    67   36  115 1    
    68   36  116 1    
    69   37   38 1    
    70   37   39 1    
    71   37   40 1    
    72   41   42 2    
    73   41   43 am   BACKBONE|DICT|INTERRES
    74   43   44 1    
    75   43  117 1    
    76   44   45 1    
    77   44   46 1    
    78   44   48 1    
    79   46   47 1    
    80   46  118 1    
    81   46  119 1    
    82   47  120 1    
    83   48   49 2    
    84   48   50 am   BACKBONE|DICT|INTERRES
    85   49  134 nc   
    86   50   51 1    
    87   50  121 1    
    88   51   52 1    
    89   51   53 1    
    90   51   55 1    
    91   53   54 1    
    92   53  122 1    
    93   53  123 1    
    94   54  134 nc   
    95   55   56 2    
    96   55   57 am   BACKBONE|DICT|INTERRES
    97   57  124 1    
    98   57   58 1    
    99   58   60 1    
   100   58   66 1    
   101   58   59 1    
   102   60   61 1    
   103   60   62 1    
   104   60   65 1    
   105   62   63 2    
   106   62   64 1    
   107   64  134 nc   
   108   65  134 nc   
   109   66   67 2    
   110   66   73 1    
   111   67   68 1    
   112   67   69 1    
   113   69   70 1    
   114   69  125 1    
   115   69  126 1    
   116   70   71 1    
   117   70  127 1    
   118   70  128 1    
   119   71   73 1    
   120   71   74 1    
   121   71   72 1    
   122   73  129 1    
   123   74   75 2    
   124   74   76 am   BACKBONE|DICT|INTERRES
   125   76   77 1    
   126   76  130 1    
   127   77   78 1    
   128   77   79 1    
   129   77   82 1    
   130   79   80 2    
   131   79   81 1    
   132   81  131 1    
   133   81  132 1    
   134   81  133 1    
   135   82   83 1    
   136   82   84 1    
   137   82   87 1    
   138   84   85 2    
   139   84   86 1    
   140   86  134 nc   
   141   87  134 nc   
@<TRIPOS>SUBSTRUCTURE
     1 UNK         1 GROUP             0       ****    0 ROOT    
