@<TRIPOS>MOLECULE
281_c1
82   91    1
SMALL
USER_CHARGES


@<TRIPOS>ATOM
      1 C1          0.3244    5.6092    3.0491 C.ar      1 UNK         0.0000 
      2 C2          0.2350    6.9935    3.2792 C.ar      1 UNK         0.0000 
      3 C3          0.5646    7.8947    2.2452 C.ar      1 UNK         0.0000 
      4 O4          0.3961    9.1514    2.3426 O.co2     1 UNK         0.0000 
      5 C5          1.0056    7.3647    1.0279 C.ar      1 UNK         0.0000 
      6 O6          1.7998    7.9977    0.2616 O.co2     1 UNK         0.0000 
      7 C7          0.6292    6.0737    0.7271 C.ar      1 UNK         0.0000 
      8 Cl8        -0.0742    5.7150   -0.8031 Cl        1 UNK         0.0000 
      9 C9          0.5672    5.1344    1.7451 C.ar      1 UNK         0.0000 
     10 C10         0.7202    3.6705    1.3952 C.2       1 UNK         0.0000 
     11 O11         0.1274    2.8067    2.0170 O.2       1 UNK         0.0000 
     12 N12         1.5249    3.2821    0.3809 N.am      1 UNK         0.0000 
     13 C13         2.6074    4.0070   -0.3203 C.3       1 UNK         0.0000 
     14 C14         2.4604    4.0468   -1.8883 C.3       1 UNK         0.0000 
     15 N15         3.1974    5.2249   -2.6825 N.4       1 UNK         0.0000 
     16 C16         3.8606    4.5229   -3.9190 C.3       1 UNK         0.0000 
     17 C17         5.2726    4.1447   -3.4722 C.3       1 UNK         0.0000 
     18 C18         5.6962    5.3822   -2.7065 C.3       1 UNK         0.0000 
     19 C19         4.4439    5.7984   -1.9140 C.3       1 UNK         0.0000 
     20 C20         2.2169    6.3246   -3.2758 C.3       1 UNK         0.0000 
     21 C21         2.5984    7.8288   -3.3845 C.2       1 UNK         0.0000 
     22 C22         1.8244    8.8565   -2.9205 C.2       1 UNK         0.0000 
     23 C23         0.3944    8.7055   -2.2063 C.2       1 UNK         0.0000 
     24 O24         0.1800    9.4673   -1.1643 O.co2     1 UNK         0.0000 
     25 O25        -0.3814    8.0429   -2.9191 O.co2     1 UNK         0.0000 
     26 C26         3.9234    8.2043   -4.0748 C.3       1 UNK         0.0000 
     27 S27         4.8337    9.4972   -3.0946 S.3       1 UNK         0.0000 
     28 C28         3.5142   10.7451   -3.4699 C.3       1 UNK         0.0000 
     29 H29         3.5082   10.7715   -4.5582 H         1 UNK         0.0000 
     30 N30         2.2184   10.1458   -3.0058 N.am      1 UNK         0.0000 
     31 C31         2.8667   12.0831   -2.8146 C.3       1 UNK         0.0000 
     32 H32         2.1944   12.4922   -3.5856 H         1 UNK         0.0000 
     33 C33         2.4201   10.9202   -1.9295 C.2       1 UNK         0.0000 
     34 O34         2.3787   10.6438   -0.7215 O.co2     1 UNK         0.0000 
     35 N35         2.9346   13.0299   -1.6148 N.am      1 UNK         0.0000 
     36 C36         1.7310   13.7083   -1.4286 C.2       1 UNK         0.0000 
     37 O37         1.1603   14.0855   -2.4526 O.2       1 UNK         0.0000 
     38 C38         0.9483   13.9323   -0.1383 C.2       1 UNK         0.0000 
     39 N39         0.5756   13.0453    0.7560 N.2       1 UNK         0.0000 
     40 O40         1.3705   11.9441    1.1573 O.3       1 UNK         0.0000 
     41 C41         1.7913   12.1847    2.5656 C.3       1 UNK         0.0000 
     42 C42         2.5101   13.5626    2.7890 C.3       1 UNK         0.0000 
     43 C43         0.5624   12.1372    3.5393 C.3       1 UNK         0.0000 
     44 C44         2.8114   11.0455    2.9128 C.2       1 UNK         0.0000 
     45 O45         2.9154   10.1480    2.0329 O.co2     1 UNK         0.0000 
     46 O46         3.5471   11.1305    3.9200 O.co2     1 UNK         0.0000 
     47 C47         0.2136   15.2568   -0.0949 C.2       1 UNK         0.0000 
     48 N48        -0.6545   15.5276    0.8786 N.2       1 UNK         0.0000 
     49 C49        -1.2598   16.6582    0.6974 C.2       1 UNK         0.0000 
     50 N50        -2.2221   17.1402    1.5292 N.pl3     1 UNK         0.0000 
     51 S51        -0.7846   17.5829   -0.6786 S.3       1 UNK         0.0000 
     52 C52         0.3339   16.3152   -1.0341 C.2       1 UNK         0.0000 
     53 H53         0.1356    4.8959    3.8494 H         1 UNK         0.0000 
     54 H54        -0.0549    7.3572    4.2589 H         1 UNK         0.0000 
     55 H55         1.4635    2.2774    0.2777 H         1 UNK         0.0000 
     56 H56         2.7500    5.0080    0.0802 H         1 UNK         0.0000 
     57 H57         3.5220    3.4696   -0.0531 H         1 UNK         0.0000 
     58 H58         1.4235    4.0364   -2.2308 H         1 UNK         0.0000 
     59 H59         2.8714    3.0990   -2.2494 H         1 UNK         0.0000 
     60 H60         3.9230    5.2417   -4.7350 H         1 UNK         0.0000 
     61 H61         3.2572    3.6858   -4.2773 H         1 UNK         0.0000 
     62 H62         5.9276    3.9358   -4.3213 H         1 UNK         0.0000 
     63 H63         5.2656    3.2547   -2.8410 H         1 UNK         0.0000 
     64 H64         6.0320    6.1710   -3.3750 H         1 UNK         0.0000 
     65 H65         6.5399    5.1748   -2.0433 H         1 UNK         0.0000 
     66 H66         4.3392    6.8672   -1.7431 H         1 UNK         0.0000 
     67 H67         4.5406    5.3551   -0.9320 H         1 UNK         0.0000 
     68 H68         1.3006    6.2399   -2.7255 H         1 UNK         0.0000 
     69 H69         1.9362    6.0004   -4.2771 H         1 UNK         0.0000 
     70 H70         3.6849    8.5880   -5.0670 H         1 UNK         0.0000 
     71 H71         4.5847    7.3725   -4.2473 H         1 UNK         0.0000 
     72 H72         3.5473   12.7950   -0.8411 H         1 UNK         0.0000 
     73 H73         1.8332   14.4042    2.6277 H         1 UNK         0.0000 
     74 H74         3.3834   13.6818    2.1399 H         1 UNK         0.0000 
     75 H75         2.8562   13.6586    3.8281 H         1 UNK         0.0000 
     76 H76        -0.1100   12.9749    3.3508 H         1 UNK         0.0000 
     77 H77         0.8685   12.2141    4.5905 H         1 UNK         0.0000 
     78 H78        -0.0503   11.2393    3.4618 H         1 UNK         0.0000 
     79 H79        -2.4944   16.6114    2.3476 H         1 UNK         0.0000 
     80 H80        -2.7040   18.0164    1.3376 H         1 UNK         0.0000 
     81 H81         0.9227   16.3890   -1.9394 H         1 UNK         0.0000 
     82 Fe82        1.3813    9.8690    0.6883 Fe        1 UNK         0.0000 
@<TRIPOS>BOND
     1    1    2 ar   
     2    1    9 ar   
     3    1   53 1    
     4    2    3 ar   
     5    2   54 1    
     6    3    4 1    
     7    3    5 ar   
     8    4   82 nc   
     9    5    6 1    
    10    5    7 ar   
    11    6   82 nc   
    12    7    8 1    
    13    7    9 ar   
    14    9   10 1    
    15   10   11 2    
    16   10   12 am   BACKBONE|DICT|INTERRES
    17   12   13 1    
    18   12   55 1    
    19   13   14 1    
    20   13   56 1    
    21   13   57 1    
    22   14   15 1    
    23   14   58 1    
    24   14   59 1    
    25   15   16 1    
    26   15   19 1    
    27   15   20 1    
    28   16   17 1    
    29   16   60 1    
    30   16   61 1    
    31   17   18 1    
    32   17   62 1    
    33   17   63 1    
    34   18   19 1    
    35   18   64 1    
    36   18   65 1    
    37   19   66 1    
    38   19   67 1    
    39   20   21 1    
    40   20   68 1    
    41   20   69 1    
    42   21   22 2    
    43   21   26 1    
    44   22   23 1    
    45   22   30 1    
    46   23   24 1    
    47   23   25 2    
    48   24   82 nc   
    49   26   27 1    
    50   26   70 1    
    51   26   71 1    
    52   27   28 1    
    53   28   29 1    
    54   28   30 1    
    55   28   31 1    
    56   30   33 am   BACKBONE|DICT|INTERRES
    57   31   32 1    
    58   31   33 1    
    59   31   35 1    
    60   33   34 2    
    61   34   82 nc   
    62   35   36 am   BACKBONE|DICT|INTERRES
    63   35   72 1    
    64   36   37 2    
    65   36   38 1    
    66   38   39 2    
    67   38   47 1    
    68   39   40 1    
    69   40   41 1    
    70   40   82 nc   
    71   41   42 1    
    72   41   43 1    
    73   41   44 1    
    74   42   73 1    
    75   42   74 1    
    76   42   75 1    
    77   43   76 1    
    78   43   77 1    
    79   43   78 1    
    80   44   45 1    
    81   44   46 2    
    82   45   82 nc   
    83   47   48 1    
    84   47   52 2    
    85   48   49 2    
    86   49   50 1    
    87   49   51 1    
    88   50   79 1    
    89   50   80 1    
    90   51   52 1    
    91   52   81 1    
@<TRIPOS>SUBSTRUCTURE
     1 UNK         1 GROUP             0       ****    0 ROOT    
