@<TRIPOS>MOLECULE
261_3_c1
125   134    1
SMALL
USER_CHARGES


@<TRIPOS>ATOM
      1 C1         -5.3119   -2.4137   -1.1078 C.ar      1 UNK         0.0000 
      2 C2         -4.8281   -3.7119   -1.2602 C.ar      1 UNK         0.0000 
      3 C3         -5.7218   -4.7745   -1.3646 C.ar      1 UNK         0.0000 
      4 C4         -7.0932   -4.5399   -1.3486 C.ar      1 UNK         0.0000 
      5 C5         -7.5928   -3.2481   -1.2021 C.ar      1 UNK         0.0000 
      6 O6         -8.8659   -3.1457   -1.2248 O.co2     1 UNK         0.0000 
      7 C7         -6.7004   -2.1483   -1.0658 C.ar      1 UNK         0.0000 
      8 C8         -7.1672   -0.7345   -1.0094 C.2       1 UNK         0.0000 
      9 O9         -6.2458    0.2596   -1.2381 O.3       1 UNK         0.0000 
     10 C10        -6.8836    1.5224   -1.1623 C.3       1 UNK         0.0000 
     11 H11        -6.5438    2.1622   -1.9777 H         1 UNK         0.0000 
     12 C12        -6.5548    2.1661    0.2054 C.3       1 UNK         0.0000 
     13 N13        -8.3414   -0.2806   -0.8277 N.2       1 UNK         0.0000 
     14 C14        -8.3479    1.0936   -1.2431 C.3       1 UNK         0.0000 
     15 H15        -9.0034    1.6792   -0.5971 H         1 UNK         0.0000 
     16 C16        -8.9635    1.1919   -2.6779 C.2       1 UNK         0.0000 
     17 O17        -8.5242    1.9816   -3.5204 O.2       1 UNK         0.0000 
     18 N18        -9.9235    0.2859   -2.9504 N.am      1 UNK         0.0000 
     19 C19       -10.4431   -0.1444   -4.2329 C.3       1 UNK         0.0000 
     20 C20        -9.3245   -0.5607   -5.2085 C.3       1 UNK         0.0000 
     21 C21        -9.7407   -1.6290   -6.2097 C.3       1 UNK         0.0000 
     22 N22        -9.8692   -3.0012   -5.5085 N.4       1 UNK         0.0000 
     23 H23        -9.0921   -3.1456   -4.8685 H         1 UNK         0.0000 
     24 H24       -10.6721   -3.0222   -4.8783 H         1 UNK         0.0000 
     25 C25        -9.9688   -4.1298   -6.5649 C.3       1 UNK         0.0000 
     26 C26        -9.9515   -5.5309   -5.9243 C.3       1 UNK         0.0000 
     27 C27       -11.2668   -5.9630   -5.2417 C.3       1 UNK         0.0000 
     28 N28       -11.7766   -4.9710   -4.3048 N.am      1 UNK         0.0000 
     29 C29       -12.8470   -4.1867   -4.4442 C.2       1 UNK         0.0000 
     30 O30       -13.5588   -4.2116   -5.4493 O.2       1 UNK         0.0000 
     31 C31       -12.9260   -3.0799   -3.3990 C.ar      1 UNK         0.0000 
     32 C32       -12.1301   -3.0715   -2.2118 C.ar      1 UNK         0.0000 
     33 O33       -11.5068   -4.1153   -1.7639 O.co2     1 UNK         0.0000 
     34 C34       -12.0620   -1.8662   -1.4723 C.ar      1 UNK         0.0000 
     35 O35       -11.2850   -1.7225   -0.4809 O.co2     1 UNK         0.0000 
     36 C36       -12.8898   -0.7924   -1.7775 C.ar      1 UNK         0.0000 
     37 C37       -13.7596   -0.8581   -2.8599 C.ar      1 UNK         0.0000 
     38 C38       -13.7629   -1.9832   -3.6725 C.ar      1 UNK         0.0000 
     39 H39        -4.6041   -1.5971   -1.0268 H         1 UNK         0.0000 
     40 H40        -3.7657   -3.8976   -1.2939 H         1 UNK         0.0000 
     41 H41        -5.3891   -5.7970   -1.4472 H         1 UNK         0.0000 
     42 H42        -7.7923   -5.3681   -1.4147 H         1 UNK         0.0000 
     43 H43        -6.9031    1.5172    1.0139 H         1 UNK         0.0000 
     44 H44        -7.0720    3.1181    0.3204 H         1 UNK         0.0000 
     45 H45        -5.4889    2.3329    0.3462 H         1 UNK         0.0000 
     46 H46       -10.1623   -0.3050   -2.1418 H         1 UNK         0.0000 
     47 H47       -11.0350   -1.0167   -3.9647 H         1 UNK         0.0000 
     48 H48       -11.1550    0.5445   -4.6906 H         1 UNK         0.0000 
     49 H49        -8.4481   -0.9271   -4.6645 H         1 UNK         0.0000 
     50 H50        -8.9799    0.3273   -5.7408 H         1 UNK         0.0000 
     51 H51        -8.9586   -1.7452   -6.9699 H         1 UNK         0.0000 
     52 H52       -10.6882   -1.4110   -6.7137 H         1 UNK         0.0000 
     53 H53        -9.0977   -3.9972   -7.2124 H         1 UNK         0.0000 
     54 H54       -10.8713   -3.9321   -7.1523 H         1 UNK         0.0000 
     55 H55        -9.1396   -5.5868   -5.1962 H         1 UNK         0.0000 
     56 H56        -9.6947   -6.2693   -6.6856 H         1 UNK         0.0000 
     57 H57       -11.1276   -6.8988   -4.7003 H         1 UNK         0.0000 
     58 H58       -12.0158   -6.1497   -6.0120 H         1 UNK         0.0000 
     59 H59       -11.4590   -4.8862   -3.3174 H         1 UNK         0.0000 
     60 H60       -12.8868    0.0791   -1.1338 H         1 UNK         0.0000 
     61 H61       -14.4072   -0.0305   -3.0778 H         1 UNK         0.0000 
     62 H62       -14.4117   -2.0114   -4.5375 H         1 UNK         0.0000 
     63 H63       -15.1284   -9.4859    0.6778 H         1 UNK         0.0000 
     64 C64       -15.1344   -9.2373    1.7366 C.3       1 UNK         0.0000 
     65 H65       -15.1532  -10.1650    2.3039 H         1 UNK         0.0000 
     66 H66       -16.0612   -8.7005    1.9460 H         1 UNK         0.0000 
     67 O67        -9.7679   -5.3998    0.5197 O.co2     1 UNK         0.0000 
     68 C68       -13.9044   -8.3775    2.1177 C.3       1 UNK         0.0000 
     69 H69       -12.9736   -8.8926    1.8706 H         1 UNK         0.0000 
     70 O70       -13.9721   -7.1548    1.4099 O.3       1 UNK         0.0000 
     71 H71       -14.7311   -8.4276    4.1491 H         1 UNK         0.0000 
     72 C72       -13.9842   -7.8819    3.5662 C.3       1 UNK         0.0000 
     73 C73        -8.8847   -5.1592    1.4118 C.ar      1 UNK         0.0000 
     74 H74        -7.9548   -7.0594    1.0666 H         1 UNK         0.0000 
     75 H75       -10.7053   -7.9370    6.3079 H         1 UNK         0.0000 
     76 N76       -12.4504   -7.1799    5.3527 N.am      1 UNK         0.0000 
     77 H77       -13.1293   -6.4272    5.2889 H         1 UNK         0.0000 
     78 C78       -12.6718   -8.0826    4.3844 C.2       1 UNK         0.0000 
     79 C79        -7.9242   -6.1385    1.6349 C.ar      1 UNK         0.0000 
     80 O80        -9.5986   -2.9780    1.7337 O.co2     1 UNK         0.0000 
     81 H81       -16.7038   -5.1480    2.0125 H         1 UNK         0.0000 
     82 C82       -11.1961   -6.9877    6.0624 C.3       1 UNK         0.0000 
     83 C83       -14.2725   -6.1360    2.2777 C.2       1 UNK         0.0000 
     84 O84       -11.9109   -9.0346    4.1833 O.2       1 UNK         0.0000 
     85 C85        -8.7987   -3.9117    2.0775 C.ar      1 UNK         0.0000 
     86 H86       -10.0008   -6.6174    4.2880 H         1 UNK         0.0000 
     87 N87       -14.3797   -6.4889    3.5051 N.2       1 UNK         0.0000 
     88 H88        -8.3895   -6.4715    6.2988 H         1 UNK         0.0000 
     89 C89       -15.9379   -4.4298    1.7237 C.ar      1 UNK         0.0000 
     90 C90       -10.2707   -6.0932    5.2066 C.3       1 UNK         0.0000 
     91 C91        -8.9800   -5.6537    5.8826 C.3       1 UNK         0.0000 
     92 C92       -14.5760   -4.8075    1.7228 C.ar      1 UNK         0.0000 
     93 C93        -6.8738   -5.8971    2.5066 C.ar      1 UNK         0.0000 
     94 H94       -11.4218   -6.5410    7.0322 H         1 UNK         0.0000 
     95 C95       -16.3121   -3.1264    1.4128 C.ar      1 UNK         0.0000 
     96 H96       -17.3567   -2.8452    1.4375 H         1 UNK         0.0000 
     97 C97        -7.7841   -3.6861    3.0399 C.ar      1 UNK         0.0000 
     98 H98        -8.3685   -5.0844    5.1888 H         1 UNK         0.0000 
     99 H99        -8.1466   -3.9088    8.6138 H         1 UNK         0.0000 
    100 H100       -9.7105   -5.2025    7.7881 H         1 UNK         0.0000 
    101 H101       -6.1193   -6.6462    2.6386 H         1 UNK         0.0000 
    102 N102       -9.3120   -4.6788    7.0197 N.4       1 UNK         0.0000 
    103 H103      -10.8121   -5.2096    4.8499 H         1 UNK         0.0000 
    104 C104      -13.5830   -3.8672    1.3290 C.ar      1 UNK         0.0000 
    105 C105       -8.1413   -3.8154    7.5267 C.3       1 UNK         0.0000 
    106 H106       -6.1222   -3.0895    4.8358 H         1 UNK         0.0000 
    107 C107       -6.7972   -4.6905    3.1860 C.ar      1 UNK         0.0000 
    108 C108      -15.3229   -2.1833    1.1417 C.ar      1 UNK         0.0000 
    109 N109       -6.9399   -2.5305    5.0139 N.am      1 UNK         0.0000 
    110 O110      -12.3285   -4.1350    1.2263 O.co2     1 UNK         0.0000 
    111 C111       -7.7814   -2.4607    3.9731 C.2       1 UNK         0.0000 
    112 C112      -13.9733   -2.5491    1.1217 C.ar      1 UNK         0.0000 
    113 H113      -10.0249   -4.0618    6.6390 H         1 UNK         0.0000 
    114 H114       -7.2228   -4.2638    7.1354 H         1 UNK         0.0000 
    115 C115       -8.3431   -2.3560    7.0745 C.3       1 UNK         0.0000 
    116 H116       -8.5274   -1.7164    7.9386 H         1 UNK         0.0000 
    117 H117       -5.9652   -4.5536    3.8520 H         1 UNK         0.0000 
    118 H118      -15.5695   -1.1537    0.9498 H         1 UNK         0.0000 
    119 C119       -7.1419   -1.7935    6.2669 C.3       1 UNK         0.0000 
    120 O120       -8.6021   -1.5396    3.9589 O.2       1 UNK         0.0000 
    121 H121      -13.1994   -1.8067    0.9688 H         1 UNK         0.0000 
    122 H122       -7.3098   -0.7312    6.0690 H         1 UNK         0.0000 
    123 H123       -9.2591   -2.2769    6.4790 H         1 UNK         0.0000 
    124 H124       -6.2208   -1.8516    6.8547 H         1 UNK         0.0000 
    125 Fe125     -10.5737   -3.5727    0.0206 Fe        1 UNK         0.0000 
@<TRIPOS>BOND
     1    1    2 ar   
     2    1    7 ar   
     3    1   39 1    
     4    2    3 ar   
     5    2   40 1    
     6    3    4 ar   
     7    3   41 1    
     8    4    5 ar   
     9    4   42 1    
    10    5    6 1    
    11    5    7 ar   
    12    6  125 nc   
    13    7    8 1    
    14    8    9 1    
    15    8   13 2    
    16    9   10 1    
    17   10   14 1    
    18   10   12 1    
    19   10   11 1    
    20   12   43 1    
    21   12   44 1    
    22   12   45 1    
    23   13   14 1    
    24   14   15 1    
    25   14   16 1    
    26   16   17 2    
    27   16   18 am   BACKBONE|DICT|INTERRES
    28   18   19 1    
    29   18   46 1    
    30   19   20 1    
    31   19   47 1    
    32   19   48 1    
    33   20   21 1    
    34   20   49 1    
    35   20   50 1    
    36   21   22 1    
    37   21   51 1    
    38   21   52 1    
    39   22   23 1    
    40   22   24 1    
    41   22   25 1    
    42   25   26 1    
    43   25   53 1    
    44   25   54 1    
    45   26   27 1    
    46   26   55 1    
    47   26   56 1    
    48   27   28 1    
    49   27   57 1    
    50   27   58 1    
    51   28   29 am   BACKBONE|DICT|INTERRES
    52   28   59 1    
    53   29   30 2    
    54   29   31 1    
    55   31   32 ar   
    56   31   38 ar   
    57   32   33 1    
    58   32   34 ar   
    59   33  125 nc   
    60   34   35 1    
    61   34   36 ar   
    62   35  125 nc   
    63   36   37 ar   
    64   36   60 1    
    65   37   38 ar   
    66   37   61 1    
    67   38   62 1    
    68   63   64 1    
    69   64   66 1    
    70   64   65 1    
    71   64   68 1    
    72   67   73 1    
    73   67  125 nc   
    74   68   72 1    
    75   68   69 1    
    76   68   70 1    
    77   70   83 1    
    78   71   72 1    
    79   72   78 1    
    80   72   87 1    
    81   73   79 ar   
    82   73   85 ar   
    83   74   79 1    
    84   75   82 1    
    85   76   82 1    
    86   76   77 1    
    87   76   78 am   BACKBONE|DICT|INTERRES
    88   78   84 2    
    89   79   93 ar   
    90   80   85 1    
    91   80  125 nc   
    92   81   89 1    
    93   82   90 1    
    94   82   94 1    
    95   83   87 2    
    96   83   92 1    
    97   85   97 ar   
    98   86   90 1    
    99   88   91 1    
   100   89   95 ar   
   101   89   92 ar   
   102   90   91 1    
   103   90  103 1    
   104   91  102 1    
   105   91   98 1    
   106   92  104 ar   
   107   93  107 ar   
   108   93  101 1    
   109   95  108 ar   
   110   95   96 1    
   111   97  107 ar   
   112   97  111 1    
   113   99  105 1    
   114  100  102 1    
   115  102  113 1    
   116  102  105 1    
   117  104  110 1    
   118  104  112 ar   
   119  105  115 1    
   120  105  114 1    
   121  106  109 1    
   122  107  117 1    
   123  108  112 ar   
   124  108  118 1    
   125  109  111 am   BACKBONE|DICT|INTERRES
   126  109  119 1    
   127  110  125 nc   
   128  111  120 2    
   129  112  121 1    
   130  115  119 1    
   131  115  116 1    
   132  115  123 1    
   133  119  124 1    
   134  119  122 1    
@<TRIPOS>SUBSTRUCTURE
     1 UNK         1 GROUP             0       ****    0 ROOT    
