@<TRIPOS>MOLECULE
082_c1
104   109    1
SMALL
USER_CHARGES


@<TRIPOS>ATOM
      1 Fe1        -0.3958    1.0057    0.2854 Fe        1 UNK         0.0000 
      2 O2          2.5126   -4.5491    6.8039 O.3       1 UNK         0.0000 
      3 C3          1.3261   -4.0168    6.2410 C.3       1 UNK         0.0000 
      4 C4          1.6806   -3.3323    4.9109 C.3       1 UNK         0.0000 
      5 C5          0.5822   -2.6591    4.0793 C.2       1 UNK         0.0000 
      6 C6         -0.8424   -2.6033    4.6449 C.3       1 UNK         0.0000 
      7 C7          0.9734   -2.1215    2.8930 C.2       1 UNK         0.0000 
      8 C8          0.2179   -1.3397    1.9397 C.2       1 UNK         0.0000 
      9 O9          0.7386   -0.3732    1.3788 O.co2     1 UNK         0.0000 
     10 N10        -1.0825   -1.5685    1.6279 N.am      1 UNK         0.0000 
     11 O11        -1.8549   -0.6109    1.0857 O.co2     1 UNK         0.0000 
     12 C12        -1.5496   -2.9330    1.3435 C.3       1 UNK         0.0000 
     13 C13        -1.5432   -3.2726   -0.1666 C.3       1 UNK         0.0000 
     14 C14        -2.0108   -4.7123   -0.4477 C.3       1 UNK         0.0000 
     15 C15        -1.9140   -5.1657   -1.9292 C.3       1 UNK         0.0000 
     16 H16        -2.3024   -6.1870   -1.9655 H         1 UNK         0.0000 
     17 N17        -0.5234   -5.2307   -2.4288 N.am      1 UNK         0.0000 
     18 C18        -0.0556   -4.6894   -3.5595 C.2       1 UNK         0.0000 
     19 O19         1.1227   -4.8630   -3.8520 O.2       1 UNK         0.0000 
     20 C20        -2.9526   -4.3888   -2.8008 C.2       1 UNK         0.0000 
     21 O21        -4.1532   -4.3183   -2.5637 O.2       1 UNK         0.0000 
     22 N22        -2.4663   -3.7811   -3.8901 N.am      1 UNK         0.0000 
     23 C23        -1.0781   -3.8568   -4.4005 C.3       1 UNK         0.0000 
     24 H24        -1.1232   -4.4106   -5.3400 H         1 UNK         0.0000 
     25 C25        -0.4722   -2.4655   -4.7331 C.3       1 UNK         0.0000 
     26 C26        -0.2204   -1.5998   -3.4878 C.3       1 UNK         0.0000 
     27 C27         0.2069   -0.1419   -3.7779 C.3       1 UNK         0.0000 
     28 N28         0.3148    0.6762   -2.5563 N.am      1 UNK         0.0000 
     29 O29        -0.7608    0.5857   -1.7692 O.co2     1 UNK         0.0000 
     30 C30         1.4385    1.3128   -2.1184 C.2       1 UNK         0.0000 
     31 O31         1.4560    1.6125   -0.9196 O.co2     1 UNK         0.0000 
     32 C32         2.5540    1.6788   -2.9693 C.2       1 UNK         0.0000 
     33 C33         2.5341    2.3283   -4.1623 C.2       1 UNK         0.0000 
     34 C34         3.8503    2.7014   -4.8364 C.3       1 UNK         0.0000 
     35 C35         1.2824    2.7544   -4.9368 C.3       1 UNK         0.0000 
     36 C36         1.1448    4.2491   -5.2623 C.3       1 UNK         0.0000 
     37 O37         1.0849    5.0361   -4.0742 O.3       1 UNK         0.0000 
     38 C38         0.7513    6.3342   -4.1511 C.2       1 UNK         0.0000 
     39 O39         0.4994    6.9322   -5.2029 O.2       1 UNK         0.0000 
     40 C40         0.7886    7.0322   -2.7843 C.3       1 UNK         0.0000 
     41 H41         1.7830    6.9378   -2.3436 H         1 UNK         0.0000 
     42 N42         0.6392    8.5006   -3.1148 N.4       1 UNK         0.0000 
     43 H43         0.7230    9.0787   -2.2905 H         1 UNK         0.0000 
     44 H44         1.3395    8.7485   -3.8039 H         1 UNK         0.0000 
     45 H45        -0.2645    8.6299   -3.5527 H         1 UNK         0.0000 
     46 C46        -0.3009    6.5515   -1.7859 C.3       1 UNK         0.0000 
     47 C47        -0.0338    5.1976   -1.0958 C.3       1 UNK         0.0000 
     48 C48        -0.9669    4.9769    0.1195 C.3       1 UNK         0.0000 
     49 N49        -0.7488    3.6668    0.7488 N.am      1 UNK         0.0000 
     50 O50        -1.6042    2.7397    0.3081 O.co2     1 UNK         0.0000 
     51 C51         0.3138    3.3256    1.5183 C.2       1 UNK         0.0000 
     52 O52         0.4890    2.1149    1.5904 O.co2     1 UNK         0.0000 
     53 C53         1.2319    4.2914    2.0982 C.2       1 UNK         0.0000 
     54 C54         2.2669    3.9960    2.9340 C.2       1 UNK         0.0000 
     55 C55         2.6319    2.6183    3.5189 C.3       1 UNK         0.0000 
     56 C56         3.2094    5.0919    3.4192 C.3       1 UNK         0.0000 
     57 C57         4.6909    4.8594    3.0709 C.3       1 UNK         0.0000 
     58 O58         5.4410    5.9772    3.4911 O.3       1 UNK         0.0000 
     59 H59         2.9672   -3.8792    7.3258 H         1 UNK         0.0000 
     60 H60         0.8762   -3.3170    6.9502 H         1 UNK         0.0000 
     61 H61         0.6185   -4.8337    6.0767 H         1 UNK         0.0000 
     62 H62         2.1794   -4.0649    4.2749 H         1 UNK         0.0000 
     63 H63         2.4297   -2.5680    5.1206 H         1 UNK         0.0000 
     64 H64        -1.5168   -3.2135    4.0486 H         1 UNK         0.0000 
     65 H65        -1.2230   -1.5840    4.6382 H         1 UNK         0.0000 
     66 H66        -0.9444   -2.9713    5.6639 H         1 UNK         0.0000 
     67 H67         2.0123   -2.2262    2.6035 H         1 UNK         0.0000 
     68 H68        -2.5627   -3.0452    1.7392 H         1 UNK         0.0000 
     69 H69        -0.9683   -3.7037    1.8643 H         1 UNK         0.0000 
     70 H70        -0.5391   -3.1302   -0.5672 H         1 UNK         0.0000 
     71 H71        -2.1872   -2.5735   -0.7010 H         1 UNK         0.0000 
     72 H72        -1.4131   -5.3957    0.1573 H         1 UNK         0.0000 
     73 H73        -3.0349   -4.8342   -0.0874 H         1 UNK         0.0000 
     74 H74         0.1765   -5.7147   -1.8908 H         1 UNK         0.0000 
     75 H75        -3.1542   -3.2344   -4.3835 H         1 UNK         0.0000 
     76 H76         0.4572   -2.5762   -5.2954 H         1 UNK         0.0000 
     77 H77        -1.1599   -1.9387   -5.3973 H         1 UNK         0.0000 
     78 H78        -1.1459   -1.5908   -2.9134 H         1 UNK         0.0000 
     79 H79         0.5360   -2.0569   -2.8511 H         1 UNK         0.0000 
     80 H80        -0.5510    0.3266   -4.4091 H         1 UNK         0.0000 
     81 H81         1.1122   -0.1380   -4.3942 H         1 UNK         0.0000 
     82 H82         3.5097    1.4173   -2.5323 H         1 UNK         0.0000 
     83 H83         3.9587    2.2088   -5.8013 H         1 UNK         0.0000 
     84 H84         3.9278    3.7775   -4.9880 H         1 UNK         0.0000 
     85 H85         4.7122    2.4156   -4.2330 H         1 UNK         0.0000 
     86 H86         1.2770    2.1983   -5.8748 H         1 UNK         0.0000 
     87 H87         0.3713    2.4611   -4.4239 H         1 UNK         0.0000 
     88 H88         0.2199    4.3829   -5.8295 H         1 UNK         0.0000 
     89 H89         1.9475    4.5848   -5.9219 H         1 UNK         0.0000 
     90 H90        -0.3703    7.2905   -0.9859 H         1 UNK         0.0000 
     91 H91        -1.2866    6.5308   -2.2582 H         1 UNK         0.0000 
     92 H92         1.0035    5.1488   -0.7609 H         1 UNK         0.0000 
     93 H93        -0.1675    4.3792   -1.8084 H         1 UNK         0.0000 
     94 H94        -0.8959    5.7890    0.8463 H         1 UNK         0.0000 
     95 H95        -2.0019    5.0638   -0.2385 H         1 UNK         0.0000 
     96 H96         3.5985    2.2843    3.1473 H         1 UNK         0.0000 
     97 H97         2.6999    2.6867    4.6044 H         1 UNK         0.0000 
     98 H98         1.9431    1.8001    3.3349 H         1 UNK         0.0000 
     99 H99         2.9062    6.0572    3.0122 H         1 UNK         0.0000 
    100 H100        3.1014    5.1785    4.5005 H         1 UNK         0.0000 
    101 H101        5.0915    3.9587    3.5450 H         1 UNK         0.0000 
    102 H102        4.8242    4.7323    1.9934 H         1 UNK         0.0000 
    103 H103        5.6142    5.9179    4.4384 H         1 UNK         0.0000 
    104 H104        1.0626    5.3225    1.8117 H         1 UNK         0.0000 
@<TRIPOS>BOND
     1    1    9 nc   
     2    1   11 nc   
     3    1   29 nc   
     4    1   31 nc   
     5    1   50 nc   
     6    1   52 nc   
     7    2   59 1    
     8    2    3 1    
     9    3   60 1    
    10    3    4 1    
    11    3   61 1    
    12    4   63 1    
    13    4    5 1    
    14    4   62 1    
    15    5    6 1    
    16    5    7 2    
    17    6   65 1    
    18    6   66 1    
    19    6   64 1    
    20    7    8 1    
    21    7   67 1    
    22    8    9 2    
    23    8   10 am   BACKBONE|DICT|INTERRES
    24   10   11 1    
    25   10   12 1    
    26   12   68 1    
    27   12   69 1    
    28   12   13 1    
    29   13   14 1    
    30   13   70 1    
    31   13   71 1    
    32   14   73 1    
    33   14   72 1    
    34   14   15 1    
    35   15   16 1    
    36   15   17 1    
    37   15   20 1    
    38   17   74 1    
    39   17   18 am   BACKBONE|DICT|INTERRES
    40   18   19 2    
    41   18   23 1    
    42   20   21 2    
    43   20   22 am   BACKBONE|DICT|INTERRES
    44   22   23 1    
    45   22   75 1    
    46   23   24 1    
    47   23   25 1    
    48   25   26 1    
    49   25   76 1    
    50   25   77 1    
    51   26   78 1    
    52   26   79 1    
    53   26   27 1    
    54   27   28 1    
    55   27   80 1    
    56   27   81 1    
    57   28   30 am   BACKBONE|DICT|INTERRES
    58   28   29 1    
    59   30   32 1    
    60   30   31 2    
    61   32   82 1    
    62   32   33 2    
    63   33   34 1    
    64   33   35 1    
    65   34   85 1    
    66   34   83 1    
    67   34   84 1    
    68   35   87 1    
    69   35   36 1    
    70   35   86 1    
    71   36   37 1    
    72   36   88 1    
    73   36   89 1    
    74   37   38 1    
    75   38   40 1    
    76   38   39 2    
    77   40   41 1    
    78   40   46 1    
    79   40   42 1    
    80   42   43 1    
    81   42   44 1    
    82   42   45 1    
    83   46   47 1    
    84   46   90 1    
    85   46   91 1    
    86   47   92 1    
    87   47   48 1    
    88   47   93 1    
    89   48   49 1    
    90   48   94 1    
    91   48   95 1    
    92   49   51 am   BACKBONE|DICT|INTERRES
    93   49   50 1    
    94   51   52 2    
    95   51   53 1    
    96   53   54 2    
    97   53  104 1    
    98   54   56 1    
    99   54   55 1    
   100   55   97 1    
   101   55   96 1    
   102   55   98 1    
   103   56  100 1    
   104   56   57 1    
   105   56   99 1    
   106   57  101 1    
   107   57   58 1    
   108   57  102 1    
   109   58  103 1    
@<TRIPOS>SUBSTRUCTURE
     1 UNK         1 GROUP             0       ****    0 ROOT    
