@<TRIPOS>MOLECULE
271_c1
112   117    1
SMALL
USER_CHARGES


@<TRIPOS>ATOM
      1 C1         -5.2539   19.5546   -5.9223 C.ar      1 UNK         0.0000 
      2 C2         -4.1247   20.3674   -5.8322 C.ar      1 UNK         0.0000 
      3 C3         -3.1010   20.2501   -6.7639 C.ar      1 UNK         0.0000 
      4 S4         -1.6496   21.2961   -6.5712 S.o2      1 UNK         0.0000 
      5 O5         -2.1374   22.6566   -6.2800 O.2       1 UNK         0.0000 
      6 O6         -0.7119   20.5970   -5.7151 O.2       1 UNK         0.0000 
      7 N7         -0.8837   21.4176   -8.1102 N.pl3     1 UNK         0.0000 
      8 C8         -3.1906   19.3155   -7.8018 C.ar      1 UNK         0.0000 
      9 C9         -4.3210   18.5025   -7.8952 C.ar      1 UNK         0.0000 
     10 C10        -5.3696   18.6161   -6.9618 C.ar      1 UNK         0.0000 
     11 N11        -6.4583   17.7329   -7.1228 N.am      1 UNK         0.0000 
     12 C12        -7.6960   17.7266   -6.5648 C.2       1 UNK         0.0000 
     13 O13        -8.1130   18.5882   -5.7994 O.2       1 UNK         0.0000 
     14 C14        -8.6079   16.5574   -7.0122 C.3       1 UNK         0.0000 
     15 C15       -10.1729   16.7626   -6.9476 C.3       1 UNK         0.0000 
     16 C16       -10.9169   16.3267   -5.6599 C.2       1 UNK         0.0000 
     17 O17       -10.2934   16.1489   -4.6197 O.2       1 UNK         0.0000 
     18 N18       -12.2552   16.1299   -5.7594 N.am      1 UNK         0.0000 
     19 C19       -13.1611   15.7364   -4.6615 C.3       1 UNK         0.0000 
     20 C20       -14.2996   14.7356   -5.0450 C.3       1 UNK         0.0000 
     21 C21       -15.6108   15.2970   -5.6978 C.3       1 UNK         0.0000 
     22 C22       -16.9365   15.1974   -4.8709 C.3       1 UNK         0.0000 
     23 C23       -18.2019   15.1312   -5.7914 C.3       1 UNK         0.0000 
     24 N24       -19.5537   14.9044   -5.1912 N.am      1 UNK         0.0000 
     25 O25       -20.1825   16.0326   -4.7754 O.co2     1 UNK         0.0000 
     26 C26       -20.2330   13.7447   -5.4422 C.2       1 UNK         0.0000 
     27 O27       -21.4696   13.8110   -5.5517 O.co2     1 UNK         0.0000 
     28 C28       -19.5580   12.3678   -5.6246 C.3       1 UNK         0.0000 
     29 C29       -18.5842   11.8367   -4.5184 C.3       1 UNK         0.0000 
     30 C30       -19.0119   11.8859   -3.0345 C.2       1 UNK         0.0000 
     31 O31       -18.3575   12.5546   -2.2453 O.2       1 UNK         0.0000 
     32 N32       -20.0229   11.0917   -2.6354 N.am      1 UNK         0.0000 
     33 C33       -20.3969   10.8098   -1.2370 C.3       1 UNK         0.0000 
     34 C34       -20.9677   12.0013   -0.4241 C.3       1 UNK         0.0000 
     35 C35       -22.3151   12.5552   -0.9506 C.3       1 UNK         0.0000 
     36 C36       -22.6535   13.9629   -0.3731 C.3       1 UNK         0.0000 
     37 C37       -23.6693   14.8200   -1.1907 C.3       1 UNK         0.0000 
     38 N38       -23.1542   15.4663   -2.4288 N.am      1 UNK         0.0000 
     39 O39       -22.2901   14.7115   -3.1010 O.co2     1 UNK         0.0000 
     40 C40       -23.5332   16.6928   -2.8870 C.2       1 UNK         0.0000 
     41 O41       -23.0013   17.0875   -3.9487 O.co2     1 UNK         0.0000 
     42 C42       -24.7198   17.4632   -2.2666 C.3       1 UNK         0.0000 
     43 C43       -26.0523   16.6594   -2.3792 C.3       1 UNK         0.0000 
     44 C44       -27.3859   17.4416   -2.3088 C.2       1 UNK         0.0000 
     45 O45       -28.0087   17.5124   -1.2553 O.2       1 UNK         0.0000 
     46 N46       -27.8666   18.0049   -3.4269 N.am      1 UNK         0.0000 
     47 C47       -28.5958   17.2580   -4.4694 C.3       1 UNK         0.0000 
     48 C48       -27.6957   16.1663   -5.0763 C.3       1 UNK         0.0000 
     49 C49       -28.0661   15.3956   -6.3416 C.3       1 UNK         0.0000 
     50 C50       -26.8231   14.5493   -6.7356 C.3       1 UNK         0.0000 
     51 C51       -25.6516   15.3993   -7.3400 C.3       1 UNK         0.0000 
     52 N52       -24.3215   15.5297   -6.6716 N.am      1 UNK         0.0000 
     53 O53       -24.1589   14.9451   -5.4720 O.co2     1 UNK         0.0000 
     54 C54       -23.3223   16.2540   -7.2513 C.2       1 UNK         0.0000 
     55 O55       -22.2469   16.3718   -6.6389 O.co2     1 UNK         0.0000 
     56 C56       -23.4779   16.9390   -8.6158 C.3       1 UNK         0.0000 
     57 H57        -6.0174   19.6492   -5.1641 H         1 UNK         0.0000 
     58 H58        -4.0301   21.0912   -5.0276 H         1 UNK         0.0000 
     59 H59        -1.3858   21.9696   -8.8054 H         1 UNK         0.0000 
     60 H60        -0.3337   20.5939   -8.3682 H         1 UNK         0.0000 
     61 H61        -2.3899   19.2291   -8.5232 H         1 UNK         0.0000 
     62 H62        -4.3604   17.7866   -8.7044 H         1 UNK         0.0000 
     63 H63        -6.3007   17.0088   -7.7951 H         1 UNK         0.0000 
     64 H64        -8.3193   15.6355   -6.5040 H         1 UNK         0.0000 
     65 H65        -8.3595   16.4021   -8.0603 H         1 UNK         0.0000 
     66 H66       -10.6157   16.1204   -7.7087 H         1 UNK         0.0000 
     67 H67       -10.4531   17.7856   -7.2065 H         1 UNK         0.0000 
     68 H68       -12.6668   16.3338   -6.6550 H         1 UNK         0.0000 
     69 H69       -13.6043   16.6407   -4.2371 H         1 UNK         0.0000 
     70 H70       -12.5933   15.2883   -3.8405 H         1 UNK         0.0000 
     71 H71       -14.5567   14.1768   -4.1460 H         1 UNK         0.0000 
     72 H72       -13.8762   13.9785   -5.7137 H         1 UNK         0.0000 
     73 H73       -15.7455   14.7189   -6.6162 H         1 UNK         0.0000 
     74 H74       -15.4670   16.3282   -6.0379 H         1 UNK         0.0000 
     75 H75       -17.0138   16.0558   -4.2042 H         1 UNK         0.0000 
     76 H76       -16.9206   14.3233   -4.2206 H         1 UNK         0.0000 
     77 H77       -18.2419   16.0533   -6.3749 H         1 UNK         0.0000 
     78 H78       -17.9881   14.3813   -6.5627 H         1 UNK         0.0000 
     79 H79       -19.0439   12.3776   -6.5870 H         1 UNK         0.0000 
     80 H80       -20.3270   11.6069   -5.7864 H         1 UNK         0.0000 
     81 H81       -17.6091   12.3138   -4.6181 H         1 UNK         0.0000 
     82 H82       -18.3458   10.7989   -4.7439 H         1 UNK         0.0000 
     83 H83       -20.5267   10.5987   -3.3517 H         1 UNK         0.0000 
     84 H84       -19.5504   10.3603   -0.7125 H         1 UNK         0.0000 
     85 H85       -21.1557   10.0270   -1.2884 H         1 UNK         0.0000 
     86 H86       -20.2225   12.7971   -0.4052 H         1 UNK         0.0000 
     87 H87       -21.0909   11.7011    0.6168 H         1 UNK         0.0000 
     88 H88       -23.1241   11.8467   -0.7390 H         1 UNK         0.0000 
     89 H89       -22.2492   12.5805   -2.0383 H         1 UNK         0.0000 
     90 H90       -21.7370   14.5461   -0.2453 H         1 UNK         0.0000 
     91 H91       -23.0411   13.8163    0.6306 H         1 UNK         0.0000 
     92 H92       -24.4890   14.1664   -1.5032 H         1 UNK         0.0000 
     93 H93       -24.1419   15.5274   -0.4949 H         1 UNK         0.0000 
     94 H94       -24.8052   18.4488   -2.7242 H         1 UNK         0.0000 
     95 H95       -24.4798   17.6566   -1.2271 H         1 UNK         0.0000 
     96 H96       -26.1373   15.9295   -1.5749 H         1 UNK         0.0000 
     97 H97       -25.9917   16.0228   -3.2504 H         1 UNK         0.0000 
     98 H98       -27.3108   18.7756   -3.7661 H         1 UNK         0.0000 
     99 H99       -28.9238   17.9564   -5.2425 H         1 UNK         0.0000 
    100 H100      -29.5272   16.8298   -4.0832 H         1 UNK         0.0000 
    101 H101      -27.6000   15.3816   -4.3289 H         1 UNK         0.0000 
    102 H102      -26.7153   16.6176   -5.2378 H         1 UNK         0.0000 
    103 H103      -28.3799   16.0677   -7.1481 H         1 UNK         0.0000 
    104 H104      -28.9216   14.7460   -6.1408 H         1 UNK         0.0000 
    105 H105      -27.1312   13.8030   -7.4573 H         1 UNK         0.0000 
    106 H106      -26.4845   13.9692   -5.8727 H         1 UNK         0.0000 
    107 H107      -26.0267   16.4124   -7.5324 H         1 UNK         0.0000 
    108 H108      -25.4624   14.9631   -8.3225 H         1 UNK         0.0000 
    109 H109      -23.2329   17.9941   -8.5054 H         1 UNK         0.0000 
    110 H110      -24.4696   16.8798   -9.0606 H         1 UNK         0.0000 
    111 H111      -22.7738   16.4962   -9.3191 H         1 UNK         0.0000 
    112 Fe112     -22.2093   15.4916   -4.8843 Fe        1 UNK         0.0000 
@<TRIPOS>BOND
     1    1    2 ar   
     2    1   10 ar   
     3    1   57 1    
     4    2    3 ar   
     5    2   58 1    
     6    3    4 1    
     7    3    8 ar   
     8    4    5 2    
     9    4    6 2    
    10    4    7 1    
    11    7   59 1    
    12    7   60 1    
    13    8    9 ar   
    14    8   61 1    
    15    9   10 ar   
    16    9   62 1    
    17   10   11 1    
    18   11   12 am   BACKBONE|DICT|INTERRES
    19   11   63 1    
    20   12   13 2    
    21   12   14 1    
    22   14   15 1    
    23   14   64 1    
    24   14   65 1    
    25   15   16 1    
    26   15   66 1    
    27   15   67 1    
    28   16   17 2    
    29   16   18 am   BACKBONE|DICT|INTERRES
    30   18   19 1    
    31   18   68 1    
    32   19   20 1    
    33   19   69 1    
    34   19   70 1    
    35   20   21 1    
    36   20   71 1    
    37   20   72 1    
    38   21   22 1    
    39   21   73 1    
    40   21   74 1    
    41   22   23 1    
    42   22   75 1    
    43   22   76 1    
    44   23   24 1    
    45   23   77 1    
    46   23   78 1    
    47   24   25 1    
    48   24   26 am   BACKBONE|DICT|INTERRES
    49   25  112 nc   
    50   26   27 2    
    51   26   28 1    
    52   27  112 nc   
    53   28   29 1    
    54   28   79 1    
    55   28   80 1    
    56   29   30 1    
    57   29   81 1    
    58   29   82 1    
    59   30   31 2    
    60   30   32 am   BACKBONE|DICT|INTERRES
    61   32   33 1    
    62   32   83 1    
    63   33   34 1    
    64   33   84 1    
    65   33   85 1    
    66   34   35 1    
    67   34   86 1    
    68   34   87 1    
    69   35   36 1    
    70   35   88 1    
    71   35   89 1    
    72   36   37 1    
    73   36   90 1    
    74   36   91 1    
    75   37   38 1    
    76   37   92 1    
    77   37   93 1    
    78   38   39 1    
    79   38   40 am   BACKBONE|DICT|INTERRES
    80   39  112 nc   
    81   40   41 2    
    82   40   42 1    
    83   41  112 nc   
    84   42   43 1    
    85   42   94 1    
    86   42   95 1    
    87   43   44 1    
    88   43   96 1    
    89   43   97 1    
    90   44   45 2    
    91   44   46 am   BACKBONE|DICT|INTERRES
    92   46   47 1    
    93   46   98 1    
    94   47   48 1    
    95   47   99 1    
    96   47  100 1    
    97   48   49 1    
    98   48  101 1    
    99   48  102 1    
   100   49   50 1    
   101   49  103 1    
   102   49  104 1    
   103   50   51 1    
   104   50  105 1    
   105   50  106 1    
   106   51   52 1    
   107   51  107 1    
   108   51  108 1    
   109   52   53 1    
   110   52   54 am   BACKBONE|DICT|INTERRES
   111   53  112 nc   
   112   54   55 2    
   113   54   56 1    
   114   55  112 nc   
   115   56  109 1    
   116   56  110 1    
   117   56  111 1    
@<TRIPOS>SUBSTRUCTURE
     1 UNK         1 GROUP             0       ****    0 ROOT    
