@<TRIPOS>MOLECULE
076_c1
58   63    1
SMALL
USER_CHARGES


@<TRIPOS>ATOM
      1 Fe1         0.0000    0.0000    0.0000 Fe        1 UNK         0.0000 
      2 O2          0.0000    2.0800    0.0000 O.co2     1 UNK         0.0000 
      3 N3          1.3292    2.4217   -0.0246 N.am      1 UNK         0.0000 
      4 C4          1.6463    3.7545   -0.0517 C.2       1 UNK         0.0000 
      5 C5          0.5283    4.7725   -0.0527 C.3       1 UNK         0.0000 
      6 C6          2.9973    4.1682   -0.0783 C.2       1 UNK         0.0000 
      7 O7          3.2663    5.5040   -0.1046 O.3       1 UNK         0.0000 
      8 C8          4.4821    6.1622   -0.1296 C.3       1 UNK         0.0000 
      9 C9          4.0027    3.1824   -0.0767 C.2       1 UNK         0.0000 
     10 C10         3.6700    1.8328   -0.0493 C.2       1 UNK         0.0000 
     11 C11         2.3339    1.4464   -0.0232 C.2       1 UNK         0.0000 
     12 O12         2.0664    0.2371    0.0000 O.co2     1 UNK         0.0000 
     13 H13        -0.1144    4.6156   -0.9445 H         1 UNK         0.0000 
     14 H14        -0.0881    4.6460    0.8622 H         1 UNK         0.0000 
     15 H15         0.8889    5.8209   -0.0756 H         1 UNK         0.0000 
     16 H16         4.5306    6.7911   -1.0420 H         1 UNK         0.0000 
     17 H17         5.3603    5.4950   -0.1260 H         1 UNK         0.0000 
     18 H18         4.5494    6.8240    0.7581 H         1 UNK         0.0000 
     19 O19         0.0000   -2.0800    0.0000 O.co2     1 UNK         0.0000 
     20 N20        -0.0332   -2.3770    1.3456 N.2       1 UNK         0.0000 
     21 C21        -0.0710   -3.7037    1.6899 C.2       1 UNK         0.0000 
     22 C22        -0.0728   -4.7440    0.5920 C.3       1 UNK         0.0000 
     23 C23        -0.1083   -4.0938    3.0475 C.2       1 UNK         0.0000 
     24 O24        -0.1452   -5.4248    3.3384 O.3       1 UNK         0.0000 
     25 C25        -0.1819   -6.0628    4.5646 C.3       1 UNK         0.0000 
     26 C26        -0.1063   -3.0932    4.0362 C.2       1 UNK         0.0000 
     27 C27        -0.0682   -1.7505    3.6835 C.2       1 UNK         0.0000 
     28 C28        -0.0314   -1.3806    2.3430 C.1       1 UNK         0.0000 
     29 O29         0.0000   -0.1675    2.0732 O.co2     1 UNK         0.0000 
     30 H30        -0.9601   -4.5937   -0.0587 H         1 UNK         0.0000 
     31 H31         0.8463   -4.6358   -0.0216 H         1 UNK         0.0000 
     32 H32        -0.1049   -5.7852    0.9718 H         1 UNK         0.0000 
     33 H33        -1.0988   -6.6847    4.6173 H         1 UNK         0.0000 
     34 H34        -0.1795   -5.3815    5.4317 H         1 UNK         0.0000 
     35 H35         0.7011   -6.7288    4.6479 H         1 UNK         0.0000 
     36 H36        -0.1343   -3.3173    5.0894 H         1 UNK         0.0000 
     37 H37        -0.0681   -0.9936    4.4592 H         1 UNK         0.0000 
     38 O38        -2.0800    0.0000    0.0000 O.co2     1 UNK         0.0000 
     39 N39        -2.3459    0.0295   -1.3567 N.am      1 UNK         0.0000 
     40 C40        -3.6675    0.0629   -1.7207 C.2       1 UNK         0.0000 
     41 C41        -4.7241    0.0641   -0.6379 C.3       1 UNK         0.0000 
     42 C42        -4.0408    0.0965   -3.0832 C.2       1 UNK         0.0000 
     43 O43        -5.3679    0.1295   -3.3902 O.3       1 UNK         0.0000 
     44 C44        -5.9917    0.1683   -4.6240 C.3       1 UNK         0.0000 
     45 C45        -3.0297    0.0951   -4.0601 C.2       1 UNK         0.0000 
     46 C46        -1.6918    0.0609   -3.6924 C.2       1 UNK         0.0000 
     47 C47        -1.3341    0.0280   -2.3483 C.2       1 UNK         0.0000 
     48 O48        -0.1180    0.0000   -2.0767 O.co2     1 UNK         0.0000 
     49 H49        -4.6222   -0.8535   -0.0209 H         1 UNK         0.0000 
     50 H50        -4.5856    0.9532    0.0129 H         1 UNK         0.0000 
     51 H51        -5.7601    0.0926   -1.0319 H         1 UNK         0.0000 
     52 H52        -6.6511   -0.7181   -4.7187 H         1 UNK         0.0000 
     53 H53        -5.2999    0.1746   -5.4827 H         1 UNK         0.0000 
     54 H54        -6.6176    1.0820   -4.6791 H         1 UNK         0.0000 
     55 H55         4.4488    1.0846   -0.0483 H         1 UNK         0.0000 
     56 H56         5.0430    3.4720   -0.0969 H         1 UNK         0.0000 
     57 H57        -0.9231    0.0597   -4.4511 H         1 UNK         0.0000 
     58 H58        -3.2910    0.1208   -5.1077 H         1 UNK         0.0000 
@<TRIPOS>BOND
     1    1    2 nc   
     2    1   12 nc   
     3    1   19 nc   
     4    1   29 nc   
     5    1   38 nc   
     6    1   48 nc   
     7    2    3 1    
     8    3   11 am   BACKBONE|DICT|INTERRES
     9    3    4 1    
    10    4    5 1    
    11    4    6 2    
    12    5   14 1    
    13    5   13 1    
    14    5   15 1    
    15    6    9 1    
    16    6    7 1    
    17    7    8 1    
    18    8   17 1    
    19    8   18 1    
    20    8   16 1    
    21    9   10 2    
    22    9   56 1    
    23   10   11 1    
    24   10   55 1    
    25   11   12 2    
    26   19   20 1    
    27   20   21 2    
    28   20   28 1    
    29   21   22 1    
    30   21   23 1    
    31   22   32 1    
    32   22   30 1    
    33   22   31 1    
    34   23   24 1    
    35   23   26 2    
    36   24   25 1    
    37   25   33 1    
    38   25   35 1    
    39   25   34 1    
    40   26   36 1    
    41   26   27 1    
    42   27   37 1    
    43   27   28 2    
    44   28   29 2    
    45   38   39 1    
    46   39   40 1    
    47   39   47 am   BACKBONE|DICT|INTERRES
    48   40   41 1    
    49   40   42 2    
    50   41   49 1    
    51   41   50 1    
    52   41   51 1    
    53   42   43 1    
    54   42   45 1    
    55   43   44 1    
    56   44   52 1    
    57   44   53 1    
    58   44   54 1    
    59   45   46 2    
    60   45   58 1    
    61   46   47 1    
    62   46   57 1    
    63   47   48 2    
@<TRIPOS>SUBSTRUCTURE
     1 UNK         1 GROUP             0       ****    0 ROOT    
