@<TRIPOS>MOLECULE
090_c1
107   111    1
SMALL
USER_CHARGES


@<TRIPOS>ATOM
      1 Fe1         0.0741    0.9363    0.7043 Fe        1 UNK         0.0000 
      2 O2         -3.2514    0.6708   -6.9777 O.3       1 UNK         0.0000 
      3 C3         -2.3105    0.1714   -6.0330 C.3       1 UNK         0.0000 
      4 C4         -2.8779    0.1268   -4.5900 C.3       1 UNK         0.0000 
      5 C5         -3.1099    1.4616   -3.8608 C.2       1 UNK         0.0000 
      6 C6         -3.8909    2.5014   -4.6684 C.3       1 UNK         0.0000 
      7 C7         -2.6974    1.8077   -2.6194 C.2       1 UNK         0.0000 
      8 C8         -1.8930    1.1305   -1.6285 C.2       1 UNK         0.0000 
      9 O9         -1.0197    1.7545   -1.0052 O.co2     1 UNK         0.0000 
     10 N10        -2.0760   -0.1426   -1.1549 N.am      1 UNK         0.0000 
     11 O11        -1.2907   -0.4695   -0.1410 O.co2     1 UNK         0.0000 
     12 C12        -2.9265   -1.2561   -1.6121 C.3       1 UNK         0.0000 
     13 C13        -3.4115   -2.2285   -0.4805 C.3       1 UNK         0.0000 
     14 C14        -3.5476   -3.7162   -0.8365 C.3       1 UNK         0.0000 
     15 C15        -2.2407   -4.4676   -1.2299 C.3       1 UNK         0.0000 
     16 H16        -1.8153   -3.9553   -2.0917 H         1 UNK         0.0000 
     17 C17        -2.5861   -5.8911   -1.7236 C.2       1 UNK         0.0000 
     18 O18        -2.5522   -6.2503   -2.8820 O.2       1 UNK         0.0000 
     19 O19        -3.0050   -6.6878   -0.7098 O.3       1 UNK         0.0000 
     20 N20        -1.1949   -4.5217   -0.1778 N.am      1 UNK         0.0000 
     21 C21         0.1067   -4.6675   -0.4980 C.2       1 UNK         0.0000 
     22 O22         0.5086   -4.6591   -1.6571 O.2       1 UNK         0.0000 
     23 C23         1.1658   -4.8946    0.6126 C.3       1 UNK         0.0000 
     24 H24         1.4549   -5.9309    0.4434 H         1 UNK         0.0000 
     25 C25         2.5044   -4.1188    0.3520 C.3       1 UNK         0.0000 
     26 C26         2.3041   -2.6288    0.4922 C.3       1 UNK         0.0000 
     27 C27         3.2340   -1.5252   -0.1201 C.3       1 UNK         0.0000 
     28 N28         2.7424   -0.1549    0.2238 N.am      1 UNK         0.0000 
     29 O29         1.7148   -0.1707    1.0522 O.co2     1 UNK         0.0000 
     30 C30         2.8533    1.0376   -0.4417 C.2       1 UNK         0.0000 
     31 O31         1.9079    1.8172   -0.1962 O.co2     1 UNK         0.0000 
     32 C32         3.8727    1.3666   -1.4138 C.2       1 UNK         0.0000 
     33 C33         5.2061    1.1088   -1.4310 C.2       1 UNK         0.0000 
     34 C34         5.9797    0.3362   -0.3675 C.3       1 UNK         0.0000 
     35 C35         6.0200    1.6793   -2.6150 C.3       1 UNK         0.0000 
     36 C36         7.5329    1.3711   -2.7471 C.3       1 UNK         0.0000 
     37 O37         8.2945    2.0681   -1.7743 O.3       1 UNK         0.0000 
     38 N38         0.6195   -4.9784    1.9944 N.am      1 UNK         0.0000 
     39 C39         0.0016   -4.2030    2.9233 C.2       1 UNK         0.0000 
     40 O40        -0.6319   -4.7772    3.8076 O.2       1 UNK         0.0000 
     41 C41        -0.0040   -2.6395    2.9915 C.3       1 UNK         0.0000 
     42 H42         0.3186   -2.1792    2.0668 H         1 UNK         0.0000 
     43 N43        -1.4471   -2.2415    3.0457 N.4       1 UNK         0.0000 
     44 H44        -1.8371   -2.5887    3.9104 H         1 UNK         0.0000 
     45 H45        -1.9609   -2.5797    2.2459 H         1 UNK         0.0000 
     46 H46        -1.4021   -1.2179    3.0185 H         1 UNK         0.0000 
     47 C47         0.7325   -2.1225    4.2796 C.3       1 UNK         0.0000 
     48 C48         0.9450   -0.5938    4.5671 C.3       1 UNK         0.0000 
     49 C49        -0.2763    0.3986    4.6585 C.3       1 UNK         0.0000 
     50 N50        -0.5985    1.0955    3.3884 N.am      1 UNK         0.0000 
     51 O51        -0.5545    0.3166    2.3432 O.co2     1 UNK         0.0000 
     52 C52        -0.4434    2.4158    3.0473 C.2       1 UNK         0.0000 
     53 O53        -0.1991    2.5238    1.8212 O.co2     1 UNK         0.0000 
     54 C54        -0.5801    3.4954    3.9967 C.2       1 UNK         0.0000 
     55 C55        -0.5136    4.8246    3.6805 C.2       1 UNK         0.0000 
     56 C56        -0.3056    5.3409    2.2475 C.3       1 UNK         0.0000 
     57 C57        -0.6622    5.8550    4.8081 C.3       1 UNK         0.0000 
     58 C58        -0.6554    7.3664    4.4874 C.3       1 UNK         0.0000 
     59 O59         0.6243    7.7896    4.0632 O.3       1 UNK         0.0000 
     60 H60        -2.8997    0.5934   -7.8697 H         1 UNK         0.0000 
     61 H61        -1.3910    0.7615   -6.0474 H         1 UNK         0.0000 
     62 H62        -2.0345   -0.8425   -6.3343 H         1 UNK         0.0000 
     63 H63        -3.8216   -0.4290   -4.5891 H         1 UNK         0.0000 
     64 H64        -2.1747   -0.4647   -4.0134 H         1 UNK         0.0000 
     65 H65        -4.8628    2.1260   -4.9935 H         1 UNK         0.0000 
     66 H66        -4.0676    3.4199   -4.1100 H         1 UNK         0.0000 
     67 H67        -3.3250    2.8053   -5.5516 H         1 UNK         0.0000 
     68 H68        -2.9690    2.7863   -2.2668 H         1 UNK         0.0000 
     69 H69        -3.7884   -0.8997   -2.1713 H         1 UNK         0.0000 
     70 H70        -2.3322   -1.8262   -2.3311 H         1 UNK         0.0000 
     71 H71        -2.7830   -2.2034    0.4027 H         1 UNK         0.0000 
     72 H72        -4.3661   -1.8439   -0.1299 H         1 UNK         0.0000 
     73 H73        -4.2676   -3.8020   -1.6485 H         1 UNK         0.0000 
     74 H74        -4.0080   -4.2214    0.0092 H         1 UNK         0.0000 
     75 H75        -1.5123   -4.7338    0.7487 H         1 UNK         0.0000 
     76 H76         2.8425   -4.3077   -0.6686 H         1 UNK         0.0000 
     77 H77         3.3006   -4.4767    1.0107 H         1 UNK         0.0000 
     78 H78         1.3114   -2.4108    0.0973 H         1 UNK         0.0000 
     79 H79         2.3144   -2.4781    1.5705 H         1 UNK         0.0000 
     80 H80         4.2374   -1.6790    0.2798 H         1 UNK         0.0000 
     81 H81         3.3179   -1.6665   -1.2020 H         1 UNK         0.0000 
     82 H82         3.4551    1.9471   -2.2223 H         1 UNK         0.0000 
     83 H83         5.3988    0.1807    0.5384 H         1 UNK         0.0000 
     84 H84         6.2924   -0.6376   -0.7554 H         1 UNK         0.0000 
     85 H85         6.8686    0.8864   -0.0579 H         1 UNK         0.0000 
     86 H86         5.5286    1.3561   -3.5345 H         1 UNK         0.0000 
     87 H87         5.8896    2.7624   -2.6125 H         1 UNK         0.0000 
     88 H88         7.8821    1.6867   -3.7342 H         1 UNK         0.0000 
     89 H89         7.7097    0.2978   -2.6968 H         1 UNK         0.0000 
     90 H90         9.2293    1.8670   -1.8828 H         1 UNK         0.0000 
     91 H91         0.5853   -5.9511    2.2686 H         1 UNK         0.0000 
     92 H92         1.7307   -2.5604    4.2790 H         1 UNK         0.0000 
     93 H93         0.2606   -2.5519    5.1659 H         1 UNK         0.0000 
     94 H94         1.6916   -0.2095    3.8681 H         1 UNK         0.0000 
     95 H95         1.4460   -0.5487    5.5383 H         1 UNK         0.0000 
     96 H96        -0.0747    1.1296    5.4447 H         1 UNK         0.0000 
     97 H97        -1.1703   -0.1184    5.0183 H         1 UNK         0.0000 
     98 H98        -1.0688    4.9423    1.5807 H         1 UNK         0.0000 
     99 H99         0.6707    5.0285    1.8830 H         1 UNK         0.0000 
    100 H100       -0.3419    6.4228    2.1268 H         1 UNK         0.0000 
    101 H101        0.1223    5.6567    5.5384 H         1 UNK         0.0000 
    102 H102       -1.5928    5.6332    5.3318 H         1 UNK         0.0000 
    103 H103       -0.9191    7.9292    5.3830 H         1 UNK         0.0000 
    104 H104       -1.4041    7.6082    3.7340 H         1 UNK         0.0000 
    105 H105        1.2389    7.7527    4.8006 H         1 UNK         0.0000 
    106 H106       -3.2113   -7.5191   -1.1436 H         1 UNK         0.0000 
    107 H107       -0.7528    3.1772    5.0091 H         1 UNK         0.0000 
@<TRIPOS>BOND
     1    1    9 nc   
     2    1   11 nc   
     3    1   29 nc   
     4    1   31 nc   
     5    1   51 nc   
     6    1   53 nc   
     7    2    3 1    
     8    2   60 1    
     9    3   61 1    
    10    3    4 1    
    11    3   62 1    
    12    4    5 1    
    13    4   64 1    
    14    4   63 1    
    15    5    7 2    
    16    5    6 1    
    17    6   66 1    
    18    6   65 1    
    19    6   67 1    
    20    7   68 1    
    21    7    8 1    
    22    8   10 am   BACKBONE|DICT|INTERRES
    23    8    9 2    
    24   10   11 1    
    25   10   12 1    
    26   12   13 1    
    27   12   69 1    
    28   12   70 1    
    29   13   72 1    
    30   13   71 1    
    31   13   14 1    
    32   14   74 1    
    33   14   15 1    
    34   14   73 1    
    35   15   16 1    
    36   15   20 1    
    37   15   17 1    
    38   17   19 1    
    39   17   18 2    
    40   19  106 1    
    41   20   75 1    
    42   20   21 am   BACKBONE|DICT|INTERRES
    43   21   23 1    
    44   21   22 2    
    45   23   24 1    
    46   23   38 1    
    47   23   25 1    
    48   25   26 1    
    49   25   77 1    
    50   25   76 1    
    51   26   79 1    
    52   26   27 1    
    53   26   78 1    
    54   27   28 1    
    55   27   80 1    
    56   27   81 1    
    57   28   29 1    
    58   28   30 am   BACKBONE|DICT|INTERRES
    59   30   32 1    
    60   30   31 2    
    61   32   33 2    
    62   32   82 1    
    63   33   34 1    
    64   33   35 1    
    65   34   85 1    
    66   34   83 1    
    67   34   84 1    
    68   35   87 1    
    69   35   36 1    
    70   35   86 1    
    71   36   37 1    
    72   36   88 1    
    73   36   89 1    
    74   37   90 1    
    75   38   91 1    
    76   38   39 am   BACKBONE|DICT|INTERRES
    77   39   40 2    
    78   39   41 1    
    79   41   42 1    
    80   41   43 1    
    81   41   47 1    
    82   43   44 1    
    83   43   45 1    
    84   43   46 1    
    85   47   48 1    
    86   47   93 1    
    87   47   92 1    
    88   48   49 1    
    89   48   95 1    
    90   48   94 1    
    91   49   97 1    
    92   49   96 1    
    93   49   50 1    
    94   50   51 1    
    95   50   52 am   BACKBONE|DICT|INTERRES
    96   52   54 1    
    97   52   53 2    
    98   54   55 2    
    99   54  107 1    
   100   55   57 1    
   101   55   56 1    
   102   56   98 1    
   103   56   99 1    
   104   56  100 1    
   105   57  102 1    
   106   57  101 1    
   107   57   58 1    
   108   58  103 1    
   109   58   59 1    
   110   58  104 1    
   111   59  105 1    
@<TRIPOS>SUBSTRUCTURE
     1 UNK         1 GROUP             0       ****    0 ROOT    
