@<TRIPOS>MOLECULE
086_c1
110   114    1
SMALL
USER_CHARGES


@<TRIPOS>ATOM
      1 Fe1        -0.7209   -3.4340   -2.0850 Fe        1 UNK         0.0000 
      2 C2          2.8196   12.5866   -0.3576 C.3       1 UNK         0.0000 
      3 C3          1.2906   12.5876   -0.2052 C.3       1 UNK         0.0000 
      4 C4          0.6390   11.2139   -0.4470 C.3       1 UNK         0.0000 
      5 C5          0.8029   10.6933   -1.8893 C.3       1 UNK         0.0000 
      6 C6         -0.0189    9.4294   -2.1999 C.3       1 UNK         0.0000 
      7 C7          0.4312    8.1864   -1.4141 C.3       1 UNK         0.0000 
      8 C8         -0.3691    6.9323   -1.7925 C.3       1 UNK         0.0000 
      9 C9          0.0882    5.6930   -1.0123 C.3       1 UNK         0.0000 
     10 C10        -0.7470    4.4444   -1.3658 C.3       1 UNK         0.0000 
     11 C11        -0.4642    3.2326   -0.4795 C.2       1 UNK         0.0000 
     12 O12        -0.0828    3.3840    0.6889 O.2       1 UNK         0.0000 
     13 N13        -0.7026    2.0596   -1.0743 N.am      1 UNK         0.0000 
     14 C14        -0.4522    0.6939   -0.6270 C.3       1 UNK         0.0000 
     15 H15        -1.3956    0.3778   -0.1753 H         1 UNK         0.0000 
     16 C16        -0.2279   -0.2305   -1.8855 C.3       1 UNK         0.0000 
     17 H17         0.1963    0.3952   -2.6846 H         1 UNK         0.0000 
     18 O18         0.6030   -1.3697   -1.7256 O.co2     1 UNK         0.0000 
     19 C19        -1.6068   -0.6286   -2.5144 C.2       1 UNK         0.0000 
     20 O20        -1.7738   -1.8835   -2.6206 O.co2     1 UNK         0.0000 
     21 O21        -2.4340    0.2705   -2.7701 O.co2     1 UNK         0.0000 
     22 C22         0.5910    0.5640    0.5158 C.2       1 UNK         0.0000 
     23 O23         1.7489    0.9772    0.4091 O.2       1 UNK         0.0000 
     24 N24         0.0937    0.0992    1.6730 N.am      1 UNK         0.0000 
     25 C25         0.9349   -0.2598    2.8115 C.3       1 UNK         0.0000 
     26 H26         1.7561    0.4568    2.8828 H         1 UNK         0.0000 
     27 C27         0.1645   -0.2874    4.1476 C.3       1 UNK         0.0000 
     28 C28        -0.4307    1.0605    4.5696 C.3       1 UNK         0.0000 
     29 N29         0.6522    2.1464    4.6011 N.4       1 UNK         0.0000 
     30 H30         1.0178    2.2843    3.6640 H         1 UNK         0.0000 
     31 H31         1.4094    1.8754    5.2131 H         1 UNK         0.0000 
     32 H32         0.2622    3.0202    4.9209 H         1 UNK         0.0000 
     33 C33         1.5778   -1.6188    2.5640 C.2       1 UNK         0.0000 
     34 O34         2.7911   -1.7405    2.6965 O.2       1 UNK         0.0000 
     35 N35         0.7205   -2.5557    2.1676 N.am      1 UNK         0.0000 
     36 C36         1.0317   -3.7308    1.3828 C.3       1 UNK         0.0000 
     37 H37         1.5811   -3.3089    0.5370 H         1 UNK         0.0000 
     38 C38        -0.2474   -4.4702    0.8033 C.3       1 UNK         0.0000 
     39 H39        -0.5659   -5.2136    1.5587 H         1 UNK         0.0000 
     40 O40         0.0782   -5.0532   -0.4522 O.co2     1 UNK         0.0000 
     41 C41        -1.5265   -3.5774    0.6337 C.2       1 UNK         0.0000 
     42 O42        -2.0048   -3.5457   -0.5322 O.co2     1 UNK         0.0000 
     43 O43        -1.8381   -2.7973    1.5715 O.co2     1 UNK         0.0000 
     44 C44         2.0094   -4.7175    2.0523 C.2       1 UNK         0.0000 
     45 O45         2.1689   -4.7397    3.2744 O.2       1 UNK         0.0000 
     46 N46         2.5889   -5.5595    1.1940 N.am      1 UNK         0.0000 
     47 C47         3.2159   -6.8105    1.5700 C.3       1 UNK         0.0000 
     48 C48         2.5217   -7.9031    0.7518 C.2       1 UNK         0.0000 
     49 O49         1.9867   -8.8579    1.3138 O.2       1 UNK         0.0000 
     50 N50         2.5196   -7.7481   -0.5797 N.am      1 UNK         0.0000 
     51 C51         1.8813   -8.6623   -1.5281 C.3       1 UNK         0.0000 
     52 H52         1.1099   -9.2238   -0.9956 H         1 UNK         0.0000 
     53 C53         2.9054   -9.6863   -2.0848 C.2       1 UNK         0.0000 
     54 O54         3.9999   -9.4110   -2.5266 O.2       1 UNK         0.0000 
     55 O55         2.4383  -10.9616   -2.0226 O.3       1 UNK         0.0000 
     56 C56         1.1515   -7.8724   -2.6482 C.3       1 UNK         0.0000 
     57 C57         2.0364   -6.9436   -3.5178 C.3       1 UNK         0.0000 
     58 C58         1.2513   -6.1614   -4.6052 C.3       1 UNK         0.0000 
     59 N59         0.3013   -5.1608   -4.0748 N.am      1 UNK         0.0000 
     60 O60         0.8597   -4.2805   -3.2383 O.co2     1 UNK         0.0000 
     61 C61        -1.0453   -5.1668   -4.2513 C.2       1 UNK         0.0000 
     62 O62        -1.7047   -4.4086   -3.5342 O.co2     1 UNK         0.0000 
     63 C63        -1.7680   -6.0195   -5.2967 C.3       1 UNK         0.0000 
     64 C64        -1.6313   -5.4656   -6.7283 C.3       1 UNK         0.0000 
     65 H65        -1.6992   -4.3732   -6.7333 H         1 UNK         0.0000 
     66 O66        -0.3919   -5.8478   -7.2797 O.3       1 UNK         0.0000 
     67 C67        -2.7118   -6.0218   -7.6610 C.3       1 UNK         0.0000 
     68 H68         3.2321   13.5705   -0.1301 H         1 UNK         0.0000 
     69 H69         3.2838   11.8670    0.3189 H         1 UNK         0.0000 
     70 H70         3.1205   12.3351   -1.3754 H         1 UNK         0.0000 
     71 H71         1.0389   12.9247    0.8019 H         1 UNK         0.0000 
     72 H72         0.8576   13.3240   -0.8847 H         1 UNK         0.0000 
     73 H73         1.0515   10.4928    0.2600 H         1 UNK         0.0000 
     74 H74        -0.4244   11.2902   -0.2142 H         1 UNK         0.0000 
     75 H75         0.5045   11.4780   -2.5860 H         1 UNK         0.0000 
     76 H76         1.8558   10.4926   -2.0935 H         1 UNK         0.0000 
     77 H77        -1.0767    9.6228   -2.0116 H         1 UNK         0.0000 
     78 H78         0.0618    9.2186   -3.2680 H         1 UNK         0.0000 
     79 H79         1.4934    8.0077   -1.5936 H         1 UNK         0.0000 
     80 H80         0.3239    8.3665   -0.3433 H         1 UNK         0.0000 
     81 H81        -1.4301    7.1061   -1.6033 H         1 UNK         0.0000 
     82 H82        -0.2748    6.7402   -2.8631 H         1 UNK         0.0000 
     83 H83         1.1421    5.4941   -1.2206 H         1 UNK         0.0000 
     84 H84         0.0132    5.8987    0.0572 H         1 UNK         0.0000 
     85 H85        -0.5826    4.1785   -2.4140 H         1 UNK         0.0000 
     86 H86        -1.8094    4.6536   -1.2417 H         1 UNK         0.0000 
     87 H87        -1.1528    2.0377   -1.9856 H         1 UNK         0.0000 
     88 H88        -0.8143   -0.3460    1.6092 H         1 UNK         0.0000 
     89 H89        -0.6478   -1.0148    4.0789 H         1 UNK         0.0000 
     90 H90         0.8163   -0.6705    4.9348 H         1 UNK         0.0000 
     91 H91        -1.1979    1.4200    3.8806 H         1 UNK         0.0000 
     92 H92        -0.8485    1.0159    5.5775 H         1 UNK         0.0000 
     93 H93        -0.2888   -2.3680    2.1214 H         1 UNK         0.0000 
     94 H94         2.1152   -5.5228    0.2908 H         1 UNK         0.0000 
     95 H95         3.1142   -7.0179    2.6374 H         1 UNK         0.0000 
     96 H96         4.2771   -6.7790    1.3226 H         1 UNK         0.0000 
     97 H97         2.9628   -6.9397   -0.9881 H         1 UNK         0.0000 
     98 H98         0.6362   -8.5776   -3.3005 H         1 UNK         0.0000 
     99 H99         0.3731   -7.2740   -2.1704 H         1 UNK         0.0000 
    100 H100        2.8073   -7.5300   -4.0082 H         1 UNK         0.0000 
    101 H101        2.5643   -6.2300   -2.8810 H         1 UNK         0.0000 
    102 H102        0.7621   -6.8947   -5.2577 H         1 UNK         0.0000 
    103 H103        1.9606   -5.6229   -5.2351 H         1 UNK         0.0000 
    104 H104       -1.5072   -7.0749   -5.2193 H         1 UNK         0.0000 
    105 H105       -2.8223   -5.9647   -5.0301 H         1 UNK         0.0000 
    106 H106       -0.0019   -5.0921   -7.7274 H         1 UNK         0.0000 
    107 H107       -2.5627   -5.7025   -8.6952 H         1 UNK         0.0000 
    108 H108       -2.7165   -7.1141   -7.6476 H         1 UNK         0.0000 
    109 H109       -3.7038   -5.6875   -7.3504 H         1 UNK         0.0000 
    110 H110        3.1600  -11.5175   -2.3214 H         1 UNK         0.0000 
@<TRIPOS>BOND
     1    1   18 nc   
     2    1   20 nc   
     3    1   40 nc   
     4    1   42 nc   
     5    1   60 nc   
     6    1   62 nc   
     7    2    3 1    
     8    2   68 1    
     9    2   69 1    
    10    2   70 1    
    11    3   71 1    
    12    3    4 1    
    13    3   72 1    
    14    4   74 1    
    15    4   73 1    
    16    4    5 1    
    17    5    6 1    
    18    5   75 1    
    19    5   76 1    
    20    6   77 1    
    21    6    7 1    
    22    6   78 1    
    23    7   80 1    
    24    7    8 1    
    25    7   79 1    
    26    8   81 1    
    27    8    9 1    
    28    8   82 1    
    29    9   84 1    
    30    9   10 1    
    31    9   83 1    
    32   10   86 1    
    33   10   11 1    
    34   10   85 1    
    35   11   12 2    
    36   11   13 am   BACKBONE|DICT|INTERRES
    37   13   14 1    
    38   13   87 1    
    39   14   15 1    
    40   14   22 1    
    41   14   16 1    
    42   16   17 1    
    43   16   18 1    
    44   16   19 1    
    45   19   20 1    
    46   19   21 2    
    47   22   24 am   BACKBONE|DICT|INTERRES
    48   22   23 2    
    49   24   88 1    
    50   24   25 1    
    51   25   26 1    
    52   25   27 1    
    53   25   33 1    
    54   27   28 1    
    55   27   90 1    
    56   27   89 1    
    57   28   29 1    
    58   28   92 1    
    59   28   91 1    
    60   29   32 1    
    61   29   31 1    
    62   29   30 1    
    63   33   34 2    
    64   33   35 am   BACKBONE|DICT|INTERRES
    65   35   93 1    
    66   35   36 1    
    67   36   37 1    
    68   36   44 1    
    69   36   38 1    
    70   38   39 1    
    71   38   40 1    
    72   38   41 1    
    73   41   43 2    
    74   41   42 1    
    75   44   45 2    
    76   44   46 am   BACKBONE|DICT|INTERRES
    77   46   47 1    
    78   46   94 1    
    79   47   95 1    
    80   47   48 1    
    81   47   96 1    
    82   48   49 2    
    83   48   50 am   BACKBONE|DICT|INTERRES
    84   50   51 1    
    85   50   97 1    
    86   51   52 1    
    87   51   53 1    
    88   51   56 1    
    89   53   55 1    
    90   53   54 2    
    91   55  110 1    
    92   56   99 1    
    93   56   57 1    
    94   56   98 1    
    95   57  101 1    
    96   57   58 1    
    97   57  100 1    
    98   58   59 1    
    99   58  102 1    
   100   58  103 1    
   101   59   60 1    
   102   59   61 am   BACKBONE|DICT|INTERRES
   103   61   63 1    
   104   61   62 2    
   105   63  104 1    
   106   63  105 1    
   107   63   64 1    
   108   64   65 1    
   109   64   66 1    
   110   64   67 1    
   111   66  106 1    
   112   67  108 1    
   113   67  109 1    
   114   67  107 1    
@<TRIPOS>SUBSTRUCTURE
     1 UNK         1 GROUP             0       ****    0 ROOT    
