@<TRIPOS>MOLECULE
156_c1
168   173    1
SMALL
USER_CHARGES


@<TRIPOS>ATOM
      1 Fe1        -1.1895    3.7884    3.1427 Fe        1 UNK         0.0000 
      2 O2         -3.8500   -1.2281   -4.7542 O.2       1 UNK         0.0000 
      3 C3         -3.8820   -0.0196   -4.9838 C.2       1 UNK         0.0000 
      4 N4         -4.8915    0.7655   -4.5474 N.am      1 UNK         0.0000 
      5 C5         -6.2673    0.2356   -4.5505 C.3       1 UNK         0.0000 
      6 H6         -6.2609   -0.7703   -4.9749 H         1 UNK         0.0000 
      7 C7         -7.0800    1.1523   -5.5104 C.3       1 UNK         0.0000 
      8 O8         -7.9825    0.4287   -6.3252 O.3       1 UNK         0.0000 
      9 C9         -7.0648    0.1284   -3.2111 C.2       1 UNK         0.0000 
     10 O10        -8.1937   -0.3574   -3.2838 O.2       1 UNK         0.0000 
     11 N11        -6.5997    0.7189   -2.0987 N.am      1 UNK         0.0000 
     12 C12        -7.5102    1.4571   -1.1872 C.3       1 UNK         0.0000 
     13 H13        -8.1986    1.8697   -1.9344 H         1 UNK         0.0000 
     14 C14        -6.9859    2.8030   -0.6329 C.3       1 UNK         0.0000 
     15 C15        -5.9496    2.7527    0.4845 C.3       1 UNK         0.0000 
     16 C16        -5.3591    4.1667    0.7592 C.3       1 UNK         0.0000 
     17 N17        -4.1979    4.2250    1.6926 N.am      1 UNK         0.0000 
     18 O18        -3.3871    3.1717    1.5582 O.co2     1 UNK         0.0000 
     19 C19        -3.9270    5.2995    2.4916 C.2       1 UNK         0.0000 
     20 O20        -2.8412    5.3694    3.1116 O.co2     1 UNK         0.0000 
     21 C21        -4.9382    6.4304    2.6502 C.3       1 UNK         0.0000 
     22 C22        -8.5712    0.7865   -0.2610 C.2       1 UNK         0.0000 
     23 O23        -9.6712    1.3295   -0.2770 O.2       1 UNK         0.0000 
     24 N24        -8.4688   -0.2489    0.5916 N.am      1 UNK         0.0000 
     25 C25        -7.5867   -1.3162    1.0793 C.3       1 UNK         0.0000 
     26 H26        -7.6691   -2.1026    0.3295 H         1 UNK         0.0000 
     27 C27        -8.2731   -1.8483    2.3584 C.3       1 UNK         0.0000 
     28 C28        -6.0600   -1.1244    1.2647 C.2       1 UNK         0.0000 
     29 O29        -5.4055   -0.6312    0.3513 O.2       1 UNK         0.0000 
     30 N30        -5.4910   -1.7018    2.3423 N.am      1 UNK         0.0000 
     31 C31        -4.1350   -2.2473    2.3359 C.3       1 UNK         0.0000 
     32 C32        -3.5195   -2.2740    3.7452 C.2       1 UNK         0.0000 
     33 O33        -4.2251   -2.1236    4.7400 O.2       1 UNK         0.0000 
     34 N34        -2.1994   -2.5242    3.7916 N.am      1 UNK         0.0000 
     35 C35        -1.3490   -2.7358    4.9796 C.3       1 UNK         0.0000 
     36 H36        -1.6151   -3.7088    5.4046 H         1 UNK         0.0000 
     37 C37        -1.4992   -1.6998    6.1372 C.3       1 UNK         0.0000 
     38 C38        -1.6673   -0.2354    5.7027 C.3       1 UNK         0.0000 
     39 C39        -0.9160    0.8049    6.5751 C.3       1 UNK         0.0000 
     40 N40        -0.7327    2.0868    5.8565 N.am      1 UNK         0.0000 
     41 O41         0.0256    1.9275    4.7588 O.co2     1 UNK         0.0000 
     42 C42        -1.3878    3.2449    6.1824 C.2       1 UNK         0.0000 
     43 O43        -1.4427    4.1719    5.3528 O.co2     1 UNK         0.0000 
     44 C44        -2.0898    3.4244    7.5319 C.3       1 UNK         0.0000 
     45 C45         0.1400   -2.9258    4.6006 C.2       1 UNK         0.0000 
     46 O46         0.8149   -3.6569    5.3139 O.2       1 UNK         0.0000 
     47 N47         0.6555   -2.2835    3.5310 N.am      1 UNK         0.0000 
     48 C48         2.1192   -2.1693    3.3223 C.3       1 UNK         0.0000 
     49 C49         2.6780   -2.7731    2.0062 C.2       1 UNK         0.0000 
     50 O50         2.0328   -3.5184    1.2653 O.2       1 UNK         0.0000 
     51 O51         3.9627   -2.3722    1.7975 O.3       1 UNK         0.0000 
     52 C52         4.9094   -3.0809    0.9759 C.3       1 UNK         0.0000 
     53 C53         5.1868   -2.6355   -0.5106 C.3       1 UNK         0.0000 
     54 H54         4.6452   -3.3411   -1.1368 H         1 UNK         0.0000 
     55 N55         6.5994   -2.7264   -0.9852 N.am      1 UNK         0.0000 
     56 C56         7.6438   -3.4476   -0.4987 C.2       1 UNK         0.0000 
     57 O57         7.5579   -4.1063    0.5357 O.2       1 UNK         0.0000 
     58 C58         8.9781   -3.4710   -1.3032 C.3       1 UNK         0.0000 
     59 C59        10.2044   -4.1779   -0.6104 C.3       1 UNK         0.0000 
     60 C60        11.5381   -4.1957   -1.4318 C.3       1 UNK         0.0000 
     61 C61        12.3294   -5.5488   -1.4639 C.3       1 UNK         0.0000 
     62 C62        13.6312   -5.6422   -0.6136 C.3       1 UNK         0.0000 
     63 C63        14.9390   -5.2093   -1.3283 C.3       1 UNK         0.0000 
     64 C64        15.7297   -6.3418   -2.0376 C.3       1 UNK         0.0000 
     65 C65        16.7140   -7.1329   -1.1378 C.3       1 UNK         0.0000 
     66 C66        18.1963   -6.9632   -1.5320 C.3       1 UNK         0.0000 
     67 C67         4.5880   -1.2477   -0.8402 C.2       1 UNK         0.0000 
     68 O68         5.0570   -0.2618   -0.2795 O.2       1 UNK         0.0000 
     69 N69         3.5531   -1.2074   -1.7082 N.am      1 UNK         0.0000 
     70 C70         2.5709   -0.1272   -1.9464 C.3       1 UNK         0.0000 
     71 H71         1.6925   -0.4529   -1.3900 H         1 UNK         0.0000 
     72 C72         2.9345    1.3293   -1.4856 C.3       1 UNK         0.0000 
     73 C73         2.3527    1.7465   -0.1183 C.3       1 UNK         0.0000 
     74 C74         2.0195    3.2718   -0.0410 C.3       1 UNK         0.0000 
     75 N75         1.1061    3.6905    1.0503 N.am      1 UNK         0.0000 
     76 O76         0.0332    2.8926    1.1441 O.co2     1 UNK         0.0000 
     77 C77         1.3127    4.8062    1.8148 C.2       1 UNK         0.0000 
     78 O78         0.5062    5.1323    2.7119 O.co2     1 UNK         0.0000 
     79 C79         2.5136    5.7015    1.5679 C.3       1 UNK         0.0000 
     80 C80         2.1087   -0.0821   -3.4237 C.2       1 UNK         0.0000 
     81 O81         2.9291   -0.2899   -4.3203 O.2       1 UNK         0.0000 
     82 N82         0.8412    0.3044   -3.6336 N.am      1 UNK         0.0000 
     83 C83         0.2664    0.7154   -4.9204 C.3       1 UNK         0.0000 
     84 C84        -0.4275   -0.4672   -5.6191 C.2       1 UNK         0.0000 
     85 O85         0.1944   -1.5099   -5.7915 O.2       1 UNK         0.0000 
     86 N86        -1.6829   -0.3803   -6.0994 N.am      1 UNK         0.0000 
     87 C87        -2.7757    0.5934   -5.8949 C.3       1 UNK         0.0000 
     88 H88        -2.4100    1.5105   -5.4363 H         1 UNK         0.0000 
     89 C89        -3.4684    0.9222   -7.2711 C.3       1 UNK         0.0000 
     90 C90        -2.6942    1.9616   -8.1093 C.3       1 UNK         0.0000 
     91 C91        -3.7982   -0.3267   -8.1343 C.3       1 UNK         0.0000 
     92 H92        -4.8348    1.7561   -4.7388 H         1 UNK         0.0000 
     93 H93        -6.4368    1.7253   -6.1771 H         1 UNK         0.0000 
     94 H94        -7.6427    1.9035   -4.9488 H         1 UNK         0.0000 
     95 H95        -8.6260   -0.0024   -5.7487 H         1 UNK         0.0000 
     96 H96        -5.6203    0.9487   -2.0187 H         1 UNK         0.0000 
     97 H97        -7.8400    3.3517   -0.2312 H         1 UNK         0.0000 
     98 H98        -6.6279    3.4095   -1.4661 H         1 UNK         0.0000 
     99 H99        -5.1692    2.0547    0.1912 H         1 UNK         0.0000 
    100 H100       -6.4054    2.3516    1.3838 H         1 UNK         0.0000 
    101 H101       -6.1823    4.8490    1.0043 H         1 UNK         0.0000 
    102 H102       -4.9917    4.5620   -0.1951 H         1 UNK         0.0000 
    103 H103       -4.6662    7.0652    3.4858 H         1 UNK         0.0000 
    104 H104       -5.9301    6.0428    2.8689 H         1 UNK         0.0000 
    105 H105       -5.0037    7.0659    1.7693 H         1 UNK         0.0000 
    106 H106       -9.3856   -0.3787    0.9931 H         1 UNK         0.0000 
    107 H107       -8.2269   -1.1086    3.1605 H         1 UNK         0.0000 
    108 H108       -9.3282   -2.0626    2.1803 H         1 UNK         0.0000 
    109 H109       -7.8307   -2.7755    2.7232 H         1 UNK         0.0000 
    110 H110       -6.0396   -2.0003    3.1383 H         1 UNK         0.0000 
    111 H111       -3.4708   -1.7654    1.6151 H         1 UNK         0.0000 
    112 H112       -4.2566   -3.2865    2.0276 H         1 UNK         0.0000 
    113 H113       -1.7232   -2.6911    2.9196 H         1 UNK         0.0000 
    114 H114       -0.6367   -1.7947    6.8009 H         1 UNK         0.0000 
    115 H115       -2.3506   -1.9819    6.7553 H         1 UNK         0.0000 
    116 H116       -2.7279    0.0001    5.7166 H         1 UNK         0.0000 
    117 H117       -1.3768   -0.1458    4.6589 H         1 UNK         0.0000 
    118 H118       -1.4106    0.8681    7.5520 H         1 UNK         0.0000 
    119 H119        0.0885    0.4306    6.8108 H         1 UNK         0.0000 
    120 H120       -1.6292    2.8803    8.3544 H         1 UNK         0.0000 
    121 H121       -2.0492    4.4716    7.8123 H         1 UNK         0.0000 
    122 H122       -3.1393    3.1490    7.4688 H         1 UNK         0.0000 
    123 H123        0.0885   -1.6167    3.0334 H         1 UNK         0.0000 
    124 H124        2.3620   -1.1119    3.3702 H         1 UNK         0.0000 
    125 H125        2.6854   -2.6312    4.1373 H         1 UNK         0.0000 
    126 H126        4.7041   -4.1521    0.9999 H         1 UNK         0.0000 
    127 H127        5.8242   -2.9417    1.5471 H         1 UNK         0.0000 
    128 H128        6.7446   -2.2107   -1.8396 H         1 UNK         0.0000 
    129 H129        8.7735   -3.9998   -2.2356 H         1 UNK         0.0000 
    130 H130        9.2564   -2.4509   -1.5719 H         1 UNK         0.0000 
    131 H131        9.9254   -5.2005   -0.3516 H         1 UNK         0.0000 
    132 H132       12.1891   -3.3900   -1.0851 H         1 UNK         0.0000 
    133 H133       12.5775   -5.7868   -2.5003 H         1 UNK         0.0000 
    134 H134       11.6720   -6.3638   -1.1620 H         1 UNK         0.0000 
    135 H135       13.7624   -6.6650   -0.2518 H         1 UNK         0.0000 
    136 H136       13.5033   -5.0474    0.2900 H         1 UNK         0.0000 
    137 H137       14.7003   -4.4333   -2.0554 H         1 UNK         0.0000 
    138 H138       15.5969   -4.7239   -0.6052 H         1 UNK         0.0000 
    139 H139       16.2781   -5.9149   -2.8800 H         1 UNK         0.0000 
    140 H140       15.0286   -7.0410   -2.4943 H         1 UNK         0.0000 
    141 H141       16.4589   -8.1932   -1.1838 H         1 UNK         0.0000 
    142 H142       16.5915   -6.8549   -0.0899 H         1 UNK         0.0000 
    143 H143       18.5103   -5.9218   -1.4530 H         1 UNK         0.0000 
    144 H144       18.8522   -7.5492   -0.8855 H         1 UNK         0.0000 
    145 H145       18.3840   -7.2874   -2.5572 H         1 UNK         0.0000 
    146 H146        3.3288   -2.0483   -2.2257 H         1 UNK         0.0000 
    147 H147        4.0050    1.5226   -1.5250 H         1 UNK         0.0000 
    148 H148        2.5370    2.0256   -2.2238 H         1 UNK         0.0000 
    149 H149        1.4504    1.1714    0.0703 H         1 UNK         0.0000 
    150 H150        3.0283    1.4614    0.6844 H         1 UNK         0.0000 
    151 H151        1.4896    3.5577   -0.9551 H         1 UNK         0.0000 
    152 H152        2.9590    3.8343   -0.1279 H         1 UNK         0.0000 
    153 H153        2.5694    6.0447    0.5326 H         1 UNK         0.0000 
    154 H154        3.4313    5.1709    1.8173 H         1 UNK         0.0000 
    155 H155        2.4574    6.5896    2.1935 H         1 UNK         0.0000 
    156 H156        0.2336    0.4084   -2.8324 H         1 UNK         0.0000 
    157 H157        1.0488    1.0845   -5.5881 H         1 UNK         0.0000 
    158 H158       -0.3984    1.5504   -4.7196 H         1 UNK         0.0000 
    159 H159       -2.0068   -1.2451   -6.5013 H         1 UNK         0.0000 
    160 H160       -4.4304    1.3929   -7.0660 H         1 UNK         0.0000 
    161 H161       -2.5904    2.9241   -7.6039 H         1 UNK         0.0000 
    162 H162       -1.6936    1.6026   -8.3444 H         1 UNK         0.0000 
    163 H163       -3.2018    2.1651   -9.0551 H         1 UNK         0.0000 
    164 H164       -4.3981   -0.0686   -9.0094 H         1 UNK         0.0000 
    165 H165       -4.3587   -1.0923   -7.5952 H         1 UNK         0.0000 
    166 H166       -2.8902   -0.7995   -8.5090 H         1 UNK         0.0000 
    167 H167       10.4029   -3.6873    0.3449 H         1 UNK         0.0000 
    168 H168       11.3083   -3.9252   -2.4626 H         1 UNK         0.0000 
@<TRIPOS>BOND
     1    1   18 nc   
     2    1   20 nc   
     3    1   41 nc   
     4    1   43 nc   
     5    1   76 nc   
     6    1   78 nc   
     7    2    3 2    
     8    3    4 am   BACKBONE|DICT|INTERRES
     9    3   87 1    
    10    4    5 1    
    11    4   92 1    
    12    5    6 1    
    13    5    9 1    
    14    5    7 1    
    15    7   94 1    
    16    7    8 1    
    17    7   93 1    
    18    8   95 1    
    19    9   11 am   BACKBONE|DICT|INTERRES
    20    9   10 2    
    21   11   12 1    
    22   11   96 1    
    23   12   13 1    
    24   12   14 1    
    25   12   22 1    
    26   14   97 1    
    27   14   15 1    
    28   14   98 1    
    29   15   99 1    
    30   15   16 1    
    31   15  100 1    
    32   16  101 1    
    33   16   17 1    
    34   16  102 1    
    35   17   19 am   BACKBONE|DICT|INTERRES
    36   17   18 1    
    37   19   20 2    
    38   19   21 1    
    39   21  104 1    
    40   21  103 1    
    41   21  105 1    
    42   22   24 am   BACKBONE|DICT|INTERRES
    43   22   23 2    
    44   24   25 1    
    45   24  106 1    
    46   25   26 1    
    47   25   27 1    
    48   25   28 1    
    49   27  107 1    
    50   27  108 1    
    51   27  109 1    
    52   28   30 am   BACKBONE|DICT|INTERRES
    53   28   29 2    
    54   30  110 1    
    55   30   31 1    
    56   31   32 1    
    57   31  112 1    
    58   31  111 1    
    59   32   34 am   BACKBONE|DICT|INTERRES
    60   32   33 2    
    61   34   35 1    
    62   34  113 1    
    63   35   36 1    
    64   35   37 1    
    65   35   45 1    
    66   37   38 1    
    67   37  115 1    
    68   37  114 1    
    69   38  116 1    
    70   38  117 1    
    71   38   39 1    
    72   39  118 1    
    73   39  119 1    
    74   39   40 1    
    75   40   42 am   BACKBONE|DICT|INTERRES
    76   40   41 1    
    77   42   44 1    
    78   42   43 2    
    79   44  121 1    
    80   44  122 1    
    81   44  120 1    
    82   45   46 2    
    83   45   47 am   BACKBONE|DICT|INTERRES
    84   47  123 1    
    85   47   48 1    
    86   48  125 1    
    87   48  124 1    
    88   48   49 1    
    89   49   50 2    
    90   49   51 1    
    91   51   52 1    
    92   52  127 1    
    93   52   53 1    
    94   52  126 1    
    95   53   54 1    
    96   53   55 1    
    97   53   67 1    
    98   55   56 am   BACKBONE|DICT|INTERRES
    99   55  128 1    
   100   56   57 2    
   101   56   58 1    
   102   58  129 1    
   103   58   59 1    
   104   58  130 1    
   105   59  131 1    
   106   59   60 1    
   107   59  167 1    
   108   60  132 1    
   109   60   61 1    
   110   60  168 1    
   111   61   62 1    
   112   61  133 1    
   113   61  134 1    
   114   62  135 1    
   115   62  136 1    
   116   62   63 1    
   117   63  138 1    
   118   63   64 1    
   119   63  137 1    
   120   64   65 1    
   121   64  139 1    
   122   64  140 1    
   123   65  142 1    
   124   65   66 1    
   125   65  141 1    
   126   66  144 1    
   127   66  143 1    
   128   66  145 1    
   129   67   68 2    
   130   67   69 am   BACKBONE|DICT|INTERRES
   131   69   70 1    
   132   69  146 1    
   133   70   71 1    
   134   70   72 1    
   135   70   80 1    
   136   72   73 1    
   137   72  147 1    
   138   72  148 1    
   139   73  149 1    
   140   73   74 1    
   141   73  150 1    
   142   74  152 1    
   143   74   75 1    
   144   74  151 1    
   145   75   77 am   BACKBONE|DICT|INTERRES
   146   75   76 1    
   147   77   79 1    
   148   77   78 2    
   149   79  154 1    
   150   79  155 1    
   151   79  153 1    
   152   80   81 2    
   153   80   82 am   BACKBONE|DICT|INTERRES
   154   82   83 1    
   155   82  156 1    
   156   83   84 1    
   157   83  157 1    
   158   83  158 1    
   159   84   85 2    
   160   84   86 am   BACKBONE|DICT|INTERRES
   161   86   87 1    
   162   86  159 1    
   163   87   88 1    
   164   87   89 1    
   165   89   90 1    
   166   89   91 1    
   167   89  160 1    
   168   90  161 1    
   169   90  162 1    
   170   90  163 1    
   171   91  164 1    
   172   91  165 1    
   173   91  166 1    
@<TRIPOS>SUBSTRUCTURE
     1 UNK         1 GROUP             0       ****    0 ROOT    
