@<TRIPOS>MOLECULE
092_c1
83   87    1
SMALL
USER_CHARGES


@<TRIPOS>ATOM
      1 Fe1         0.7408    1.2152    0.1677 Fe        1 UNK         0.0000 
      2 C2          3.7754   -1.5086    0.4678 C.3       1 UNK         0.0000 
      3 C3          2.7036   -0.5495    0.9687 C.2       1 UNK         0.0000 
      4 O4          2.7162    0.6486    0.6720 O.co2     1 UNK         0.0000 
      5 N5          1.5703   -0.9464    1.5728 N.am      1 UNK         0.0000 
      6 O6          0.6557   -0.0343    1.8816 O.co2     1 UNK         0.0000 
      7 C7          1.1691   -2.3555    1.7603 C.3       1 UNK         0.0000 
      8 C8          0.6779   -3.0481    0.4559 C.3       1 UNK         0.0000 
      9 C9          0.2903   -4.5273    0.6830 C.3       1 UNK         0.0000 
     10 C10         0.0016   -5.3478   -0.5955 C.3       1 UNK         0.0000 
     11 C11        -1.3609   -5.0969   -1.2711 C.3       1 UNK         0.0000 
     12 N12        -1.4530   -3.8503   -2.0355 N.am      1 UNK         0.0000 
     13 C13        -2.4274   -2.9382   -1.8941 C.2       1 UNK         0.0000 
     14 O14        -3.2683   -2.9861   -1.0032 O.2       1 UNK         0.0000 
     15 C15        -2.4924   -1.8176   -2.9402 C.3       1 UNK         0.0000 
     16 C16        -2.5799   -0.3878   -2.3544 C.3       1 UNK         0.0000 
     17 C17        -1.2522    0.0974   -1.7603 C.2       1 UNK         0.0000 
     18 O18        -1.0721    0.3011   -0.5538 O.co2     1 UNK         0.0000 
     19 N19        -0.1531    0.3453   -2.5010 N.am      1 UNK         0.0000 
     20 O20         0.9392    0.7089   -1.8532 O.co2     1 UNK         0.0000 
     21 C21        -0.0786    0.5161   -3.9579 C.3       1 UNK         0.0000 
     22 C22         0.2942    1.9709   -4.3270 C.3       1 UNK         0.0000 
     23 C23         0.4810    2.2441   -5.8284 C.3       1 UNK         0.0000 
     24 C24         1.1079    3.6266   -6.1331 C.3       1 UNK         0.0000 
     25 C25         0.3141    4.8780   -5.6900 C.3       1 UNK         0.0000 
     26 N26         0.2021    5.1312   -4.2504 N.am      1 UNK         0.0000 
     27 C27         1.2093    5.3202   -3.3895 C.2       1 UNK         0.0000 
     28 O28         2.3889    5.1875   -3.6914 O.2       1 UNK         0.0000 
     29 C29         0.8357    5.8130   -1.9857 C.3       1 UNK         0.0000 
     30 C30         1.6377    5.1718   -0.8157 C.3       1 UNK         0.0000 
     31 C31         1.0498    3.8776   -0.2231 C.2       1 UNK         0.0000 
     32 O32         1.5247    2.7347   -0.3334 O.co2     1 UNK         0.0000 
     33 N33        -0.0484    3.8144    0.5589 N.am      1 UNK         0.0000 
     34 O34        -0.3594    2.5999    1.0103 O.co2     1 UNK         0.0000 
     35 C35        -0.9136    4.9208    0.9854 C.3       1 UNK         0.0000 
     36 C36        -0.4221    5.5173    2.3195 C.3       1 UNK         0.0000 
     37 C37        -1.3016    6.6510    2.8768 C.3       1 UNK         0.0000 
     38 C38        -0.6775    7.2522    4.1482 C.3       1 UNK         0.0000 
     39 N39        -1.5628    8.3785    4.6997 N.4       1 UNK         0.0000 
     40 H40        -2.4779    8.0239    4.9440 H         1 UNK         0.0000 
     41 H41        -1.1493    8.7779    5.5317 H         1 UNK         0.0000 
     42 H42        -1.6710    9.1146    4.0149 H         1 UNK         0.0000 
     43 H43         4.7466   -1.2358    0.8725 H         1 UNK         0.0000 
     44 H44         3.5696   -2.5482    0.7094 H         1 UNK         0.0000 
     45 H45         3.8122   -1.4136   -0.6158 H         1 UNK         0.0000 
     46 H46         1.9909   -2.9334    2.1972 H         1 UNK         0.0000 
     47 H47         0.3838   -2.4374    2.5190 H         1 UNK         0.0000 
     48 H48        -0.1792   -2.5043    0.0524 H         1 UNK         0.0000 
     49 H49         1.4685   -3.0141   -0.2964 H         1 UNK         0.0000 
     50 H50         1.1038   -5.0221    1.2184 H         1 UNK         0.0000 
     51 H51        -0.5817   -4.5738    1.3407 H         1 UNK         0.0000 
     52 H52         0.0109   -6.3984   -0.3037 H         1 UNK         0.0000 
     53 H53         0.8127   -5.2538   -1.3177 H         1 UNK         0.0000 
     54 H54        -1.5926   -5.9224   -1.9427 H         1 UNK         0.0000 
     55 H55        -2.1365   -5.1399   -0.5004 H         1 UNK         0.0000 
     56 H56        -0.7753   -3.7121   -2.7663 H         1 UNK         0.0000 
     57 H57        -3.4150   -2.0080   -3.4918 H         1 UNK         0.0000 
     58 H58        -1.7094   -1.8915   -3.6949 H         1 UNK         0.0000 
     59 H59        -3.4135   -0.2827   -1.6585 H         1 UNK         0.0000 
     60 H60        -2.8199    0.3104   -3.1534 H         1 UNK         0.0000 
     61 H61        -0.9941    0.2272   -4.4758 H         1 UNK         0.0000 
     62 H62         0.6679   -0.1792   -4.3431 H         1 UNK         0.0000 
     63 H63         1.2232    2.2371   -3.8167 H         1 UNK         0.0000 
     64 H64        -0.4888    2.6157   -3.9284 H         1 UNK         0.0000 
     65 H65         1.1422    1.4803   -6.2465 H         1 UNK         0.0000 
     66 H66        -0.4821    2.1485   -6.3319 H         1 UNK         0.0000 
     67 H67         1.2312    3.6929   -7.2142 H         1 UNK         0.0000 
     68 H68         2.1240    3.6768   -5.7426 H         1 UNK         0.0000 
     69 H69        -0.7089    4.7682   -6.0519 H         1 UNK         0.0000 
     70 H70         0.7023    5.7668   -6.1887 H         1 UNK         0.0000 
     71 H71        -0.7298    5.1544   -3.8805 H         1 UNK         0.0000 
     72 H72         1.1057    6.8734   -2.0262 H         1 UNK         0.0000 
     73 H73        -0.2422    5.7843   -1.8239 H         1 UNK         0.0000 
     74 H74         2.6924    5.0292   -1.0623 H         1 UNK         0.0000 
     75 H75         1.6254    5.8688    0.0184 H         1 UNK         0.0000 
     76 H76        -0.9817    5.7135    0.2347 H         1 UNK         0.0000 
     77 H77        -1.9440    4.5559    1.0806 H         1 UNK         0.0000 
     78 H78         0.5929    5.8912    2.1594 H         1 UNK         0.0000 
     79 H79        -0.3470    4.7056    3.0465 H         1 UNK         0.0000 
     80 H80        -1.4235    7.4203    2.1115 H         1 UNK         0.0000 
     81 H81        -2.2975    6.2536    3.0887 H         1 UNK         0.0000 
     82 H82         0.2940    7.7145    3.9526 H         1 UNK         0.0000 
     83 H83        -0.5921    6.5217    4.9577 H         1 UNK         0.0000 
@<TRIPOS>BOND
     1    1    4 nc   
     2    1    6 nc   
     3    1   18 nc   
     4    1   20 nc   
     5    1   32 nc   
     6    1   34 nc   
     7    2   44 1    
     8    2   43 1    
     9    2    3 1    
    10    2   45 1    
    11    3    5 am   BACKBONE|DICT|INTERRES
    12    3    4 2    
    13    5    7 1    
    14    5    6 1    
    15    7   46 1    
    16    7   47 1    
    17    7    8 1    
    18    8    9 1    
    19    8   48 1    
    20    8   49 1    
    21    9   50 1    
    22    9   51 1    
    23    9   10 1    
    24   10   52 1    
    25   10   11 1    
    26   10   53 1    
    27   11   55 1    
    28   11   12 1    
    29   11   54 1    
    30   12   13 am   BACKBONE|DICT|INTERRES
    31   12   56 1    
    32   13   14 2    
    33   13   15 1    
    34   15   16 1    
    35   15   57 1    
    36   15   58 1    
    37   16   17 1    
    38   16   59 1    
    39   16   60 1    
    40   17   19 am   BACKBONE|DICT|INTERRES
    41   17   18 2    
    42   19   20 1    
    43   19   21 1    
    44   21   22 1    
    45   21   61 1    
    46   21   62 1    
    47   22   64 1    
    48   22   63 1    
    49   22   23 1    
    50   23   24 1    
    51   23   65 1    
    52   23   66 1    
    53   24   25 1    
    54   24   68 1    
    55   24   67 1    
    56   25   26 1    
    57   25   69 1    
    58   25   70 1    
    59   26   71 1    
    60   26   27 am   BACKBONE|DICT|INTERRES
    61   27   29 1    
    62   27   28 2    
    63   29   73 1    
    64   29   30 1    
    65   29   72 1    
    66   30   31 1    
    67   30   75 1    
    68   30   74 1    
    69   31   32 2    
    70   31   33 am   BACKBONE|DICT|INTERRES
    71   33   34 1    
    72   33   35 1    
    73   35   77 1    
    74   35   36 1    
    75   35   76 1    
    76   36   37 1    
    77   36   79 1    
    78   36   78 1    
    79   37   81 1    
    80   37   38 1    
    81   37   80 1    
    82   38   39 1    
    83   38   83 1    
    84   38   82 1    
    85   39   40 1    
    86   39   41 1    
    87   39   42 1    
@<TRIPOS>SUBSTRUCTURE
     1 UNK         1 GROUP             0       ****    0 ROOT    
