@<TRIPOS>MOLECULE
132_c1
95   102    1
SMALL
USER_CHARGES


@<TRIPOS>ATOM
      1 F1         -1.9272   -5.2459   -2.1114 F         1 UNK         0.0000 
      2 C2         -2.4960   -4.0273   -2.0137 C.ar      1 UNK         0.0000 
      3 C3         -1.6975   -2.8946   -1.9605 C.ar      1 UNK         0.0000 
      4 C4         -3.8686   -3.9055   -1.9575 C.ar      1 UNK         0.0000 
      5 C5         -4.4456   -2.6450   -1.8594 C.ar      1 UNK         0.0000 
      6 C6         -3.6558   -1.4895   -1.8333 C.ar      1 UNK         0.0000 
      7 O7         -4.3225   -0.4097   -1.7988 O.co2     1 UNK         0.0000 
      8 C8         -2.2300   -1.5829   -1.8550 C.ar      1 UNK         0.0000 
      9 C9         -1.2597   -0.4322   -1.7203 C.2       1 UNK         0.0000 
     10 C10         0.1906   -0.7744   -1.6444 C.ar      1 UNK         0.0000 
     11 C11         0.8742   -0.7853   -0.4193 C.ar      1 UNK         0.0000 
     12 C12         2.2135   -1.1617   -0.3653 C.ar      1 UNK         0.0000 
     13 C13         2.8786   -1.5397   -1.5297 C.ar      1 UNK         0.0000 
     14 Cl14        4.5302   -2.0332   -1.4537 Cl        1 UNK         0.0000 
     15 C15         2.2150   -1.5293   -2.7543 C.ar      1 UNK         0.0000 
     16 C16         0.8810   -1.1365   -2.8145 C.ar      1 UNK         0.0000 
     17 N17        -1.7261    0.7916   -1.6488 N.pl3     1 UNK         0.0000 
     18 C18        -0.8046    1.9086   -1.3264 C.3       1 UNK         0.0000 
     19 C19        -1.2375    2.7986   -0.0757 C.3       1 UNK         0.0000 
     20 C20        -2.5248    3.0117    0.8500 C.3       1 UNK         0.0000 
     21 C21        -3.9549    3.1785    0.2549 C.2       1 UNK         0.0000 
     22 O22        -4.2935    2.5209   -0.7413 O.co2     1 UNK         0.0000 
     23 O23        -4.8120    4.0655    0.8347 O.3       1 UNK         0.0000 
     24 C24        -4.5506    4.8495    2.0078 C.3       1 UNK         0.0000 
     25 C25        -3.6288    6.0663    1.7569 C.3       1 UNK         0.0000 
     26 O26        -4.0631    7.2065    2.4846 O.3       1 UNK         0.0000 
     27 C27        -3.0924    8.2467    2.5413 C.3       1 UNK         0.0000 
     28 H28        -0.6363   -3.0983   -1.9952 H         1 UNK         0.0000 
     29 H29        -4.4904   -4.7923   -1.9988 H         1 UNK         0.0000 
     30 H30        -5.5213   -2.5686   -1.8133 H         1 UNK         0.0000 
     31 H31         0.3713   -0.5140    0.4989 H         1 UNK         0.0000 
     32 H32         2.7421   -1.1730    0.5795 H         1 UNK         0.0000 
     33 H33         2.7392   -1.8341   -3.6508 H         1 UNK         0.0000 
     34 H34         0.3855   -1.1558   -3.7771 H         1 UNK         0.0000 
     35 H35        -0.6672    2.4996   -2.2404 H         1 UNK         0.0000 
     36 H36         0.2299    1.6082   -1.1257 H         1 UNK         0.0000 
     37 H37        -1.2591    1.8242    0.4104 H         1 UNK         0.0000 
     38 H38        -1.7771    3.3727   -0.8252 H         1 UNK         0.0000 
     39 H39        -2.3027    3.9170    1.4008 H         1 UNK         0.0000 
     40 H40        -2.6229    2.2724    1.6515 H         1 UNK         0.0000 
     41 H41        -4.1572    4.2335    2.8173 H         1 UNK         0.0000 
     42 H42        -5.4991    5.2200    2.4036 H         1 UNK         0.0000 
     43 H43        -2.6062    5.8267    2.0454 H         1 UNK         0.0000 
     44 H44        -3.6211    6.3268    0.6957 H         1 UNK         0.0000 
     45 H45        -3.5584    9.1709    2.8769 H         1 UNK         0.0000 
     46 H46        -2.6351    8.4346    1.5696 H         1 UNK         0.0000 
     47 H47        -2.3012    7.9922    3.2466 H         1 UNK         0.0000 
     48 H48        -4.5827   -2.6803   -4.5415 H         1 UNK         0.0000 
     49 H49        -2.6447    7.4341   -2.4926 H         1 UNK         0.0000 
     50 H50        -6.5544   -4.8586   -5.6789 H         1 UNK         0.0000 
     51 C51        -3.8241   -2.7542   -5.3206 C.3       1 UNK         0.0000 
     52 C52        -3.2974    6.5879   -2.6652 C.ar      1 UNK         0.0000 
     53 O53        -3.2563    0.3463   -4.2089 O.co2     1 UNK         0.0000 
     54 H54        -3.0216   -3.3890   -4.9478 H         1 UNK         0.0000 
     55 H55        -1.6964    5.1829   -2.7787 H         1 UNK         0.0000 
     56 H56        -7.1512   -0.7818   -4.6750 H         1 UNK         0.0000 
     57 C57        -5.8720   -5.3489   -6.3745 C.3       1 UNK         0.0000 
     58 C58        -3.8310   -0.3753   -5.0509 C.2       1 UNK         0.0000 
     59 O59        -3.2691   -1.4609   -5.5740 O.3       1 UNK         0.0000 
     60 C60        -2.7687    5.3141   -2.8352 C.ar      1 UNK         0.0000 
     61 H61        -5.8343   -6.4055   -6.1148 H         1 UNK         0.0000 
     62 F62        -5.1867    8.0023   -2.5408 F         1 UNK         0.0000 
     63 H63        -5.5747   -0.7926   -6.2418 H         1 UNK         0.0000 
     64 C64        -4.6675    6.7704   -2.7123 C.ar      1 UNK         0.0000 
     65 O65        -4.5647   -4.7983   -6.2971 O.3       1 UNK         0.0000 
     66 C66        -6.2837   -0.2515   -4.2728 C.3       1 UNK         0.0000 
     67 C67        -5.2838   -0.1048   -5.4481 C.3       1 UNK         0.0000 
     68 H68        -7.4171    0.7897   -2.7453 H         1 UNK         0.0000 
     69 C69        -4.4653   -3.4022   -6.5575 C.3       1 UNK         0.0000 
     70 C70        -3.6054    4.2222   -3.0865 C.ar      1 UNK         0.0000 
     71 H71        -8.8020    2.8273   -3.4479 H         1 UNK         0.0000 
     72 C72        -6.8242    1.0431   -3.6305 C.3       1 UNK         0.0000 
     73 N73        -5.8123    2.0642   -3.2587 N.pl3     1 UNK         0.0000 
     74 C74        -5.5041    5.6865   -2.9470 C.ar      1 UNK         0.0000 
     75 O75        -3.0288    3.1134   -3.1718 O.co2     1 UNK         0.0000 
     76 H76        -6.2722   -5.2635   -7.3847 H         1 UNK         0.0000 
     77 C77        -5.0128    4.3844   -3.2129 C.ar      1 UNK         0.0000 
     78 C78        -6.0099    3.3195   -3.6292 C.2       1 UNK         0.0000 
     79 C79        -8.5111    3.4935   -4.2484 C.ar      1 UNK         0.0000 
     80 H80        -5.4249   -2.9399   -6.8009 H         1 UNK         0.0000 
     81 H81        -6.5667    5.9039   -2.9572 H         1 UNK         0.0000 
     82 H82        -5.9527   -0.9470   -3.5062 H         1 UNK         0.0000 
     83 H83       -10.5480    3.6724   -4.9201 H         1 UNK         0.0000 
     84 C84        -7.1612    3.8384   -4.4630 C.ar      1 UNK         0.0000 
     85 H85        -3.8227   -3.2662   -7.4290 H         1 UNK         0.0000 
     86 H86        -5.3478    0.8848   -5.9070 H         1 UNK         0.0000 
     87 C87        -9.5204    3.9799   -5.0741 C.ar      1 UNK         0.0000 
     88 H88        -7.5458    1.3473   -4.3844 H         1 UNK         0.0000 
     89 C89        -6.8877    4.7784   -5.4768 C.ar      1 UNK         0.0000 
     90 C90        -9.2105    4.8761   -6.0925 C.ar      1 UNK         0.0000 
     91 C91        -7.8976    5.2966   -6.2786 C.ar      1 UNK         0.0000 
     92 H92        -5.8786    5.1253   -5.6630 H         1 UNK         0.0000 
     93 Cl93      -10.4592    5.4725   -7.1214 Cl        1 UNK         0.0000 
     94 H94        -7.6627    6.0228   -7.0441 H         1 UNK         0.0000 
     95 Fe95       -3.7472    1.3888   -2.4825 Fe        1 UNK         0.0000 
@<TRIPOS>BOND
     1    1    2 1    
     2    2    3 ar   
     3    2    4 ar   
     4    3    8 ar   
     5    3   28 1    
     6    4    5 ar   
     7    4   29 1    
     8    5    6 ar   
     9    5   30 1    
    10    6    7 1    
    11    6    8 ar   
    12    7   95 nc   
    13    8    9 1    
    14    9   10 1    
    15    9   17 2    
    16   10   11 ar   
    17   10   16 ar   
    18   11   12 ar   
    19   11   31 1    
    20   12   13 ar   
    21   12   32 1    
    22   13   14 1    
    23   13   15 ar   
    24   15   16 ar   
    25   15   33 1    
    26   16   34 1    
    27   17   18 1    
    28   17   95 nc   
    29   18   19 1    
    30   18   35 1    
    31   18   36 1    
    32   19   20 1    
    33   19   37 1    
    34   19   38 1    
    35   20   21 1    
    36   20   39 1    
    37   20   40 1    
    38   21   22 2    
    39   21   23 1    
    40   22   95 nc   
    41   23   24 1    
    42   24   25 1    
    43   24   41 1    
    44   24   42 1    
    45   25   26 1    
    46   25   43 1    
    47   25   44 1    
    48   26   27 1    
    49   27   45 1    
    50   27   46 1    
    51   27   47 1    
    52   48   51 1    
    53   49   52 1    
    54   50   57 1    
    55   51   69 1    
    56   51   54 1    
    57   51   59 1    
    58   52   60 ar   
    59   52   64 ar   
    60   53   58 2    
    61   53   95 nc   
    62   55   60 1    
    63   56   66 1    
    64   57   61 1    
    65   57   76 1    
    66   57   65 1    
    67   58   59 1    
    68   58   67 1    
    69   60   70 ar   
    70   62   64 1    
    71   63   67 1    
    72   64   74 ar   
    73   65   69 1    
    74   66   67 1    
    75   66   82 1    
    76   66   72 1    
    77   67   86 1    
    78   68   72 1    
    79   69   80 1    
    80   69   85 1    
    81   70   75 1    
    82   70   77 ar   
    83   71   79 1    
    84   72   88 1    
    85   72   73 1    
    86   73   78 2    
    87   73   95 nc   
    88   74   77 ar   
    89   74   81 1    
    90   75   95 nc   
    91   77   78 1    
    92   78   84 1    
    93   79   87 ar   
    94   79   84 ar   
    95   83   87 1    
    96   84   89 ar   
    97   87   90 ar   
    98   89   92 1    
    99   89   91 ar   
   100   90   93 1    
   101   90   91 ar   
   102   91   94 1    
@<TRIPOS>SUBSTRUCTURE
     1 UNK         1 GROUP             0       ****    0 ROOT    
