@<TRIPOS>MOLECULE
200_c1
45   51    1
SMALL
USER_CHARGES


@<TRIPOS>ATOM
      1 O1          2.3486   -3.1975   -3.6444 O.co2     1 UNK         0.0000 
      2 C2          0.9075   -3.3118   -3.6658 C.3       1 UNK         0.0000 
      3 H3          0.8153   -4.2396   -3.0926 H         1 UNK         0.0000 
      4 C4          0.0690   -2.1760   -2.8999 C.3       1 UNK         0.0000 
      5 H5         -0.8346   -2.7059   -2.5961 H         1 UNK         0.0000 
      6 C6          0.6829   -1.5733   -1.6281 C.3       1 UNK         0.0000 
      7 O7          1.7959   -0.8001   -1.9612 O.co2     1 UNK         0.0000 
      8 O8         -0.4431   -1.0097   -3.6166 O.3       1 UNK         0.0000 
      9 C9         -0.7077   -0.9799   -5.0258 C.3       1 UNK         0.0000 
     10 H10        -1.6186   -0.4034   -5.1879 H         1 UNK         0.0000 
     11 C11        -0.9352   -2.4871   -5.4894 C.3       1 UNK         0.0000 
     12 H12        -1.0313   -2.5196   -6.5699 H         1 UNK         0.0000 
     13 O13        -2.2659   -2.8900   -5.1214 O.3       1 UNK         0.0000 
     14 C14         0.1617   -3.5613   -5.0432 C.3       1 UNK         0.0000 
     15 H15        -0.4001   -4.4945   -4.9317 H         1 UNK         0.0000 
     16 O16         1.0871   -3.8765   -6.0702 O.3       1 UNK         0.0000 
     17 C17         0.3782   -0.1403   -5.7518 C.ar      1 UNK         0.0000 
     18 C18         1.0134    1.0036   -5.1631 C.ar      1 UNK         0.0000 
     19 C19         2.3707    1.3413   -5.5149 C.ar      1 UNK         0.0000 
     20 C20         2.8885    0.6535   -6.6252 C.ar      1 UNK         0.0000 
     21 O21         4.1474    0.8307   -7.1372 O.3       1 UNK         0.0000 
     22 C22         2.4397   -0.6608   -6.6833 C.ar      1 UNK         0.0000 
     23 O23         2.7794   -1.3749   -5.6678 O.co2     1 UNK         0.0000 
     24 C24         1.0750   -0.7598   -6.7935 C.ar      1 UNK         0.0000 
     25 C25         3.3574    1.4195   -4.3520 C.2       1 UNK         0.0000 
     26 O26         3.0041    0.8377   -3.3693 O.co2     1 UNK         0.0000 
     27 N27         4.6969    1.3982   -4.5163 N.am      1 UNK         0.0000 
     28 C28         5.7378    0.6437   -3.6851 C.3       1 UNK         0.0000 
     29 H29         6.6023    1.3076   -3.6256 H         1 UNK         0.0000 
     30 C30         5.4244    0.2368   -2.1464 C.2       1 UNK         0.0000 
     31 O31         4.5666   -0.7099   -1.9649 O.co2     1 UNK         0.0000 
     32 O32         6.0855    0.8900   -1.3014 O.co2     1 UNK         0.0000 
     33 C33         6.1760   -0.6426   -4.4757 C.3       1 UNK         0.0000 
     34 O34         5.1709   -1.6291   -4.4459 O.co2     1 UNK         0.0000 
     35 H35        -0.0896   -0.9937   -1.1165 H         1 UNK         0.0000 
     36 H36         0.9083   -2.3547   -0.8904 H         1 UNK         0.0000 
     37 H37        -2.7625   -2.0973   -4.9189 H         1 UNK         0.0000 
     38 H38         0.6095    1.3286   -4.2079 H         1 UNK         0.0000 
     39 H39         0.7410   -1.7002   -7.1829 H         1 UNK         0.0000 
     40 H40         4.9609    1.5287   -5.4862 H         1 UNK         0.0000 
     41 H41         7.1156   -0.9988   -4.0400 H         1 UNK         0.0000 
     42 H42         6.4776   -0.3539   -5.4882 H         1 UNK         0.0000 
     43 Fe43        3.2338   -1.2162   -3.5077 Fe        1 UNK         0.0000 
     44 H44         1.8777   -3.3641   -5.8018 H         1 UNK         0.0000 
     45 H45         4.4293   -0.0897   -7.2235 H         1 UNK         0.0000 
@<TRIPOS>BOND
     1    1    2 1    
     2    1   43 nc   
     3    2    4 1    
     4    2    3 1    
     5    2   14 1    
     6    4    5 1    
     7    4    6 1    
     8    4    8 1    
     9    6    7 1    
    10    6   35 1    
    11    6   36 1    
    12    7   43 nc   
    13    8    9 1    
    14    9   11 1    
    15    9   17 1    
    16    9   10 1    
    17   11   12 1    
    18   11   13 1    
    19   11   14 1    
    20   13   37 1    
    21   14   16 1    
    22   14   15 1    
    23   16   44 1    
    24   17   18 ar   
    25   17   24 ar   
    26   18   19 ar   
    27   18   38 1    
    28   19   20 ar   
    29   19   25 1    
    30   20   21 1    
    31   20   22 ar   
    32   21   45 1    
    33   22   23 1    
    34   22   24 ar   
    35   23   43 nc   
    36   24   39 1    
    37   25   26 2    
    38   25   27 am   BACKBONE|DICT|INTERRES
    39   26   43 nc   
    40   27   40 1    
    41   27   28 1    
    42   28   30 1    
    43   28   33 1    
    44   28   29 1    
    45   30   31 1    
    46   30   32 2    
    47   31   43 nc   
    48   33   34 1    
    49   33   41 1    
    50   33   42 1    
    51   34   43 nc   
@<TRIPOS>SUBSTRUCTURE
     1 UNK         1 GROUP             0       ****    0 ROOT    
