@<TRIPOS>MOLECULE
181_B_c1
74   82    1
SMALL
USER_CHARGES


@<TRIPOS>ATOM
      1 O1          4.7248  -11.5262   -2.0886 O.co2     1 UNK         0.0000 
      2 C2          4.4755  -11.0233   -3.2418 C.2       1 UNK         0.0000 
      3 O3          4.5785  -11.6000   -4.3383 O.co2     1 UNK         0.0000 
      4 C4          4.0541   -9.4963   -3.2301 C.3       1 UNK         0.0000 
      5 C5          2.6131   -9.2608   -3.7643 C.3       1 UNK         0.0000 
      6 N6          4.1107   -8.9952   -1.8515 N.pl3     1 UNK         0.0000 
      7 C7          4.8471   -7.9460   -1.7418 C.2       1 UNK         0.0000 
      8 S8          5.0658   -7.0837   -3.2871 S.3       1 UNK         0.0000 
      9 C9          5.1046   -8.7202   -4.0410 C.3       1 UNK         0.0000 
     10 C10         5.6285   -7.5210   -0.4338 C.3       1 UNK         0.0000 
     11 C11         7.1374   -7.4390   -0.8599 C.3       1 UNK         0.0000 
     12 C12         5.1405   -6.1128    0.0390 C.3       1 UNK         0.0000 
     13 C13         5.5482   -8.5981    0.7638 C.3       1 UNK         0.0000 
     14 H14         6.3720   -8.2833    1.4069 H         1 UNK         0.0000 
     15 O15         5.7430   -9.9351    0.3405 O.co2     1 UNK         0.0000 
     16 C16         4.3267   -8.5627    1.7442 C.3       1 UNK         0.0000 
     17 H17         4.0554   -7.5266    1.9753 H         1 UNK         0.0000 
     18 N18         3.1364   -9.2814    1.1737 N.3       1 UNK         0.0000 
     19 C19         2.0962   -8.3699    0.6279 C.3       1 UNK         0.0000 
     20 C20         4.7446   -9.2260    3.0968 C.3       1 UNK         0.0000 
     21 S21         3.1794   -9.5217    3.8590 S.3       1 UNK         0.0000 
     22 C22         2.5883  -10.1268    2.2725 C.3       1 UNK         0.0000 
     23 H23         1.5116   -9.9379    2.3391 H         1 UNK         0.0000 
     24 C24         2.7454  -11.6743    2.0708 C.3       1 UNK         0.0000 
     25 H25         1.6735  -11.9232    1.9269 H         1 UNK         0.0000 
     26 N26         3.5032  -12.0289    0.8860 N.pl3     1 UNK         0.0000 
     27 C27         3.1485  -13.2039    0.6195 C.2       1 UNK         0.0000 
     28 S28         3.2120  -14.2101    2.1399 S.3       1 UNK         0.0000 
     29 C29         3.2592  -12.6694    3.1195 C.3       1 UNK         0.0000 
     30 C30         2.4146  -13.4593   -0.6827 C.ar      1 UNK         0.0000 
     31 C31         2.1297  -14.7597   -1.1866 C.ar      1 UNK         0.0000 
     32 C32         2.4832  -16.0296   -0.3991 C.3       1 UNK         0.0000 
     33 C33         1.8305  -17.3464   -0.8597 C.3       1 UNK         0.0000 
     34 C34         1.9801  -18.4540    0.1979 C.3       1 UNK         0.0000 
     35 C35         1.1454  -19.6930   -0.1549 C.3       1 UNK         0.0000 
     36 C36         1.2175  -20.7598    0.9440 C.3       1 UNK         0.0000 
     37 C37         1.4638  -14.9014   -2.4153 C.ar      1 UNK         0.0000 
     38 C38         1.0257  -13.8091   -3.1337 C.ar      1 UNK         0.0000 
     39 C39         1.2505  -12.5338   -2.6459 C.ar      1 UNK         0.0000 
     40 C40         1.9211  -12.3322   -1.4442 C.ar      1 UNK         0.0000 
     41 O41         2.0691  -11.0935   -1.1287 O.co2     1 UNK         0.0000 
     42 H42         2.4916   -9.6602   -4.7730 H         1 UNK         0.0000 
     43 H43         2.3939   -8.1961   -3.7905 H         1 UNK         0.0000 
     44 H44         1.8397   -9.6975   -3.1387 H         1 UNK         0.0000 
     45 H45         6.1196   -9.1030   -3.8824 H         1 UNK         0.0000 
     46 H46         4.8946   -8.7242   -5.1102 H         1 UNK         0.0000 
     47 H47         7.3020   -6.7000   -1.6409 H         1 UNK         0.0000 
     48 H48         7.5279   -8.3834   -1.2561 H         1 UNK         0.0000 
     49 H49         7.8095   -7.1387   -0.0543 H         1 UNK         0.0000 
     50 H50         5.3175   -5.3659   -0.7322 H         1 UNK         0.0000 
     51 H51         5.6839   -5.7502    0.9149 H         1 UNK         0.0000 
     52 H52         4.0765   -6.0645    0.2693 H         1 UNK         0.0000 
     53 H53         2.4691   -7.7323   -0.1798 H         1 UNK         0.0000 
     54 H54         1.6606   -7.6879    1.3698 H         1 UNK         0.0000 
     55 H55         1.2570   -8.9274    0.1960 H         1 UNK         0.0000 
     56 H56         5.4036   -8.6290    3.7274 H         1 UNK         0.0000 
     57 H57         5.1981  -10.2121    2.9858 H         1 UNK         0.0000 
     58 H58         4.2915  -12.4825    3.4106 H         1 UNK         0.0000 
     59 H59         2.6327  -12.7246    4.0087 H         1 UNK         0.0000 
     60 H60         3.5669  -16.1290   -0.2887 H         1 UNK         0.0000 
     61 H61         2.0466  -15.8674    0.5776 H         1 UNK         0.0000 
     62 H62         2.2500  -17.6671   -1.8190 H         1 UNK         0.0000 
     63 H63         0.7621  -17.1648   -1.0217 H         1 UNK         0.0000 
     64 H64         3.0362  -18.7168    0.3102 H         1 UNK         0.0000 
     65 H65         1.6608  -18.0702    1.1725 H         1 UNK         0.0000 
     66 H66         1.4842  -20.1072   -1.1074 H         1 UNK         0.0000 
     67 H67         0.1036  -19.3994   -0.3082 H         1 UNK         0.0000 
     68 H68         0.6036  -21.6219    0.6874 H         1 UNK         0.0000 
     69 H69         0.8581  -20.3661    1.8971 H         1 UNK         0.0000 
     70 H70         2.2412  -21.1085    1.0923 H         1 UNK         0.0000 
     71 H71         1.2285  -15.8757   -2.8223 H         1 UNK         0.0000 
     72 H72         0.4904  -13.9392   -4.0615 H         1 UNK         0.0000 
     73 H73         0.9007  -11.6992   -3.2297 H         1 UNK         0.0000 
     74 Fe74        3.8958  -10.5277   -0.4630 Fe        1 UNK         0.0000 
@<TRIPOS>BOND
     1    1    2 1    
     2    1   74 nc   
     3    2    3 2    
     4    2    4 1    
     5    4    6 1    
     6    4    9 1    
     7    4    5 1    
     8    5   42 1    
     9    5   43 1    
    10    5   44 1    
    11    6    7 2    
    12    6   74 nc   
    13    7    8 1    
    14    7   10 1    
    15    8    9 1    
    16    9   45 1    
    17    9   46 1    
    18   10   11 1    
    19   10   12 1    
    20   10   13 1    
    21   11   47 1    
    22   11   48 1    
    23   11   49 1    
    24   12   50 1    
    25   12   51 1    
    26   12   52 1    
    27   13   14 1    
    28   13   15 1    
    29   13   16 1    
    30   15   74 nc   
    31   16   18 1    
    32   16   20 1    
    33   16   17 1    
    34   18   19 1    
    35   18   22 1    
    36   18   74 nc   
    37   19   53 1    
    38   19   54 1    
    39   19   55 1    
    40   20   21 1    
    41   20   56 1    
    42   20   57 1    
    43   21   22 1    
    44   22   23 1    
    45   22   24 1    
    46   24   26 1    
    47   24   29 1    
    48   24   25 1    
    49   26   27 2    
    50   26   74 nc   
    51   27   28 1    
    52   27   30 1    
    53   28   29 1    
    54   29   58 1    
    55   29   59 1    
    56   30   31 ar   
    57   30   40 ar   
    58   31   32 1    
    59   31   37 ar   
    60   32   33 1    
    61   32   60 1    
    62   32   61 1    
    63   33   34 1    
    64   33   62 1    
    65   33   63 1    
    66   34   35 1    
    67   34   64 1    
    68   34   65 1    
    69   35   36 1    
    70   35   66 1    
    71   35   67 1    
    72   36   68 1    
    73   36   69 1    
    74   36   70 1    
    75   37   38 ar   
    76   37   71 1    
    77   38   39 ar   
    78   38   72 1    
    79   39   40 ar   
    80   39   73 1    
    81   40   41 1    
    82   41   74 nc   
@<TRIPOS>SUBSTRUCTURE
     1 UNK         1 GROUP             0       ****    0 ROOT    
