@<TRIPOS>MOLECULE
243_c1
80   84    1
SMALL
USER_CHARGES


@<TRIPOS>ATOM
      1 O1         13.7038    4.2349    7.7598 O.co2     1 UNK         0.0000 
      2 C2         13.9151    4.1775    6.5325 C.2       1 UNK         0.0000 
      3 C3         14.6056    5.3218    5.7831 C.3       1 UNK         0.0000 
      4 N4         13.4842    3.0530    5.9033 N.am      1 UNK         0.0000 
      5 O5         13.1819    1.9450    6.6169 O.co2     1 UNK         0.0000 
      6 C6         12.9332    3.0184    4.5096 C.3       1 UNK         0.0000 
      7 C7         12.2704    4.2664    3.7884 C.3       1 UNK         0.0000 
      8 C8         11.0957    5.1265    4.3845 C.3       1 UNK         0.0000 
      9 C9          9.6503    4.5364    4.4566 C.2       1 UNK         0.0000 
     10 O10         8.8391    4.8971    3.6031 O.2       1 UNK         0.0000 
     11 C11         9.1889    3.4881    5.5199 C.3       1 UNK         0.0000 
     12 C12         9.6897    3.5514    7.0041 C.3       1 UNK         0.0000 
     13 O13        11.0422    3.8897    6.9200 O.co2     1 UNK         0.0000 
     14 C14         9.5657    2.0755    7.6426 C.2       1 UNK         0.0000 
     15 O15        10.6457    1.5448    8.1010 O.co2     1 UNK         0.0000 
     16 O16         8.4397    1.5399    7.6902 O.co2     1 UNK         0.0000 
     17 C17         9.0099    4.6070    7.9888 C.3       1 UNK         0.0000 
     18 C18         9.5982    6.0405    8.3048 C.2       1 UNK         0.0000 
     19 O19         8.8197    6.9969    8.3117 O.2       1 UNK         0.0000 
     20 C20        11.1046    6.3569    8.6254 C.3       1 UNK         0.0000 
     21 C21        11.6398    6.5155   10.1050 C.3       1 UNK         0.0000 
     22 C22        12.0347    5.3074   11.0619 C.3       1 UNK         0.0000 
     23 N23        12.3401    3.9861   10.4569 N.am      1 UNK         0.0000 
     24 O24        11.3656    3.6814    9.6720 O.co2     1 UNK         0.0000 
     25 C25        13.3685    3.0922   10.5423 C.2       1 UNK         0.0000 
     26 O26        13.3987    2.2035    9.6426 O.co2     1 UNK         0.0000 
     27 C27        14.4629    3.0581   11.6299 C.3       1 UNK         0.0000 
     28 C28        14.3354    3.9657   12.8754 C.3       1 UNK         0.0000 
     29 C29        15.2911    3.5529   14.0116 C.3       1 UNK         0.0000 
     30 C30        16.7882    3.5142   13.6072 C.3       1 UNK         0.0000 
     31 C31        17.3447    4.8275   13.0126 C.3       1 UNK         0.0000 
     32 C32        17.2483    6.0183   13.9846 C.3       1 UNK         0.0000 
     33 C33        17.8744    7.3118   13.4272 C.3       1 UNK         0.0000 
     34 C34        17.7567    8.5137   14.3872 C.3       1 UNK         0.0000 
     35 C35        18.5233    8.3308   15.7136 C.3       1 UNK         0.0000 
     36 C36        18.4479    9.5695   16.6211 C.3       1 UNK         0.0000 
     37 C37        19.2132    9.3736   17.9401 C.3       1 UNK         0.0000 
     38 H38        15.5350    5.5857    6.2839 H         1 UNK         0.0000 
     39 H39        14.8661    5.0611    4.7572 H         1 UNK         0.0000 
     40 H40        13.9714    6.2052    5.7642 H         1 UNK         0.0000 
     41 H41        12.1717    2.2330    4.4707 H         1 UNK         0.0000 
     42 H42        13.7456    2.6692    3.8666 H         1 UNK         0.0000 
     43 H43        13.0515    4.9599    3.4807 H         1 UNK         0.0000 
     44 H44        11.9039    3.8937    2.8329 H         1 UNK         0.0000 
     45 H45        10.9922    5.9898    3.7253 H         1 UNK         0.0000 
     46 H46        11.3569    5.5775    5.3393 H         1 UNK         0.0000 
     47 H47         9.5299    2.5432    5.0980 H         1 UNK         0.0000 
     48 H48         8.1001    3.4179    5.5036 H         1 UNK         0.0000 
     49 H49         8.9313    4.1631    8.9830 H         1 UNK         0.0000 
     50 H50         7.9716    4.7420    7.6824 H         1 UNK         0.0000 
     51 H51        11.2418    7.3302    8.1573 H         1 UNK         0.0000 
     52 H52        11.7825    5.7400    8.0559 H         1 UNK         0.0000 
     53 H53        10.9974    7.2064   10.6481 H         1 UNK         0.0000 
     54 H54        12.5553    7.0924    9.9880 H         1 UNK         0.0000 
     55 H55        12.8362    5.6787   11.6989 H         1 UNK         0.0000 
     56 H56        11.2084    5.1604   11.7603 H         1 UNK         0.0000 
     57 H57        14.4559    2.0245   11.9826 H         1 UNK         0.0000 
     58 H58        15.4294    3.2136   11.1534 H         1 UNK         0.0000 
     59 H59        13.3134    3.9604   13.2644 H         1 UNK         0.0000 
     60 H60        14.5685    4.9961   12.6084 H         1 UNK         0.0000 
     61 H61        15.0006    2.5688   14.3889 H         1 UNK         0.0000 
     62 H62        15.1584    4.2341   14.8565 H         1 UNK         0.0000 
     63 H63        16.9522    2.7050   12.8922 H         1 UNK         0.0000 
     64 H64        17.3777    3.2403   14.4841 H         1 UNK         0.0000 
     65 H65        16.8309    5.0711   12.0799 H         1 UNK         0.0000 
     66 H66        18.3861    4.6700   12.7338 H         1 UNK         0.0000 
     67 H67        17.7370    5.7402   14.9204 H         1 UNK         0.0000 
     68 H68        16.2038    6.2137   14.2329 H         1 UNK         0.0000 
     69 H69        17.3919    7.5653   12.4814 H         1 UNK         0.0000 
     70 H70        18.9274    7.1414   13.1881 H         1 UNK         0.0000 
     71 H71        16.7034    8.7116   14.5990 H         1 UNK         0.0000 
     72 H72        18.1277    9.4031   13.8758 H         1 UNK         0.0000 
     73 H73        19.5683    8.0937   15.5018 H         1 UNK         0.0000 
     74 H74        18.1249    7.4753   16.2614 H         1 UNK         0.0000 
     75 H75        17.4038    9.8026   16.8386 H         1 UNK         0.0000 
     76 H76        18.8473   10.4379   16.0938 H         1 UNK         0.0000 
     77 H77        18.8122    8.5347   18.5112 H         1 UNK         0.0000 
     78 H78        19.1488   10.2608   18.5698 H         1 UNK         0.0000 
     79 H79        20.2703    9.1740   17.7588 H         1 UNK         0.0000 
     80 Fe80       12.2259    2.8611    8.1236 Fe        1 UNK         0.0000 
@<TRIPOS>BOND
     1    1    2 2    
     2    1   80 nc   
     3    2    3 1    
     4    2    4 am   BACKBONE|DICT|INTERRES
     5    3   38 1    
     6    3   39 1    
     7    3   40 1    
     8    4    5 1    
     9    4    6 1    
    10    5   80 nc   
    11    6    7 1    
    12    6   41 1    
    13    6   42 1    
    14    7    8 1    
    15    7   43 1    
    16    7   44 1    
    17    8    9 1    
    18    8   45 1    
    19    8   46 1    
    20    9   10 2    
    21    9   11 1    
    22   11   47 1    
    23   11   48 1    
    24   11   12 1    
    25   12   14 1    
    26   12   17 1    
    27   12   13 1    
    28   13   80 nc   
    29   14   15 1    
    30   14   16 2    
    31   15   80 nc   
    32   17   18 1    
    33   17   49 1    
    34   17   50 1    
    35   18   19 2    
    36   18   20 1    
    37   20   21 1    
    38   20   51 1    
    39   20   52 1    
    40   21   22 1    
    41   21   53 1    
    42   21   54 1    
    43   22   23 1    
    44   22   55 1    
    45   22   56 1    
    46   23   24 1    
    47   23   25 am   BACKBONE|DICT|INTERRES
    48   24   80 nc   
    49   25   26 2    
    50   25   27 1    
    51   26   80 nc   
    52   27   28 1    
    53   27   57 1    
    54   27   58 1    
    55   28   29 1    
    56   28   59 1    
    57   28   60 1    
    58   29   30 1    
    59   29   61 1    
    60   29   62 1    
    61   30   31 1    
    62   30   63 1    
    63   30   64 1    
    64   31   32 1    
    65   31   65 1    
    66   31   66 1    
    67   32   33 1    
    68   32   67 1    
    69   32   68 1    
    70   33   34 1    
    71   33   69 1    
    72   33   70 1    
    73   34   35 1    
    74   34   71 1    
    75   34   72 1    
    76   35   36 1    
    77   35   73 1    
    78   35   74 1    
    79   36   37 1    
    80   36   75 1    
    81   36   76 1    
    82   37   77 1    
    83   37   78 1    
    84   37   79 1    
@<TRIPOS>SUBSTRUCTURE
     1 UNK         1 GROUP             0       ****    0 ROOT    
