@<TRIPOS>MOLECULE
179_B2_c1
51   56    1
SMALL
USER_CHARGES


@<TRIPOS>ATOM
      1 Fe1        -0.0022    0.0325   -0.0308 Fe        1 UNK         0.0000 
      2 O2          5.0179   -2.4714   -1.4591 O.3       1 UNK         0.0000 
      3 C3          3.9003   -2.6686   -0.6032 C.3       1 UNK         0.0000 
      4 C4          2.5620   -2.3881   -1.3390 C.3       1 UNK         0.0000 
      5 H5          2.5069   -3.0514   -2.2016 H         1 UNK         0.0000 
      6 C6          1.3792   -2.8741   -0.3732 C.2       1 UNK         0.0000 
      7 O7          0.3905   -2.1030   -0.1274 O.co2     1 UNK         0.0000 
      8 O8          1.5353   -4.0397    0.0440 O.co2     1 UNK         0.0000 
      9 N9          2.5114   -0.9876   -1.8871 N.am      1 UNK         0.0000 
     10 C10         2.3961    0.1026   -1.1259 C.2       1 UNK         0.0000 
     11 O11         2.1792   -0.0403    0.0703 O.co2     1 UNK         0.0000 
     12 C12         2.1029    1.4562   -1.7217 C.ar      1 UNK         0.0000 
     13 C13         1.2211    2.3814   -1.0752 C.ar      1 UNK         0.0000 
     14 O14         0.4952    2.1270   -0.0344 O.co2     1 UNK         0.0000 
     15 C15         1.0099    3.6387   -1.6455 C.ar      1 UNK         0.0000 
     16 C16         1.5305    3.9502   -2.9026 C.ar      1 UNK         0.0000 
     17 C17         2.3186    3.0185   -3.5749 C.ar      1 UNK         0.0000 
     18 C18         2.6226    1.7942   -2.9847 C.ar      1 UNK         0.0000 
     19 H19         4.9451   -3.1128   -2.1691 H         1 UNK         0.0000 
     20 H20         3.9913   -2.0110    0.2692 H         1 UNK         0.0000 
     21 H21         3.9590   -3.6964   -0.2227 H         1 UNK         0.0000 
     22 H22         2.3635   -0.8934   -2.8857 H         1 UNK         0.0000 
     23 H23         0.3625    4.3553   -1.1502 H         1 UNK         0.0000 
     24 H24         1.3086    4.9012   -3.3504 H         1 UNK         0.0000 
     25 H25         2.6990    3.2591   -4.5539 H         1 UNK         0.0000 
     26 H26         3.2752    1.1206   -3.5283 H         1 UNK         0.0000 
     27 O27        -5.0257    1.4588    2.4668 O.3       1 UNK         0.0000 
     28 C28        -3.9091    0.6017    2.6655 C.3       1 UNK         0.0000 
     29 C29        -2.5688    1.3365    2.3891 C.3       1 UNK         0.0000 
     30 H30        -2.5134    2.1962    3.0558 H         1 UNK         0.0000 
     31 C31        -1.3883    0.3672    2.8749 C.2       1 UNK         0.0000 
     32 O32        -0.3959    0.1242    2.1042 O.co2     1 UNK         0.0000 
     33 O33        -1.5462   -0.0518    4.0377 O.co2     1 UNK         0.0000 
     34 N34        -2.5145    1.8885    0.9912 N.am      1 UNK         0.0000 
     35 C35        -2.3995    1.1298   -0.1011 C.2       1 UNK         0.0000 
     36 O36        -2.1834   -0.0666    0.0394 O.co2     1 UNK         0.0000 
     37 C37        -2.1032    1.7274   -1.4526 C.ar      1 UNK         0.0000 
     38 C38        -1.2202    1.0818   -2.3772 C.ar      1 UNK         0.0000 
     39 O39        -0.4969    0.0384   -2.1266 O.co2     1 UNK         0.0000 
     40 C40        -1.0089    1.6534   -3.6346 C.ar      1 UNK         0.0000 
     41 C41        -1.5286    2.9113   -3.9443 C.ar      1 UNK         0.0000 
     42 C42        -2.3170    3.5831   -3.0133 C.ar      1 UNK         0.0000 
     43 C43        -2.6217    2.9917   -1.7894 C.ar      1 UNK         0.0000 
     44 H44        -4.9590    2.1629    3.1156 H         1 UNK         0.0000 
     45 H45        -3.9987   -0.2699    2.0069 H         1 UNK         0.0000 
     46 H46        -3.9708    0.2209    3.6926 H         1 UNK         0.0000 
     47 H47        -2.3633    2.8869    0.9006 H         1 UNK         0.0000 
     48 H48        -0.3618    1.1584   -4.3517 H         1 UNK         0.0000 
     49 H49        -1.3071    3.3587   -4.8957 H         1 UNK         0.0000 
     50 H50        -2.6967    4.5620   -3.2537 H         1 UNK         0.0000 
     51 H51        -3.2753    3.5348   -1.1157 H         1 UNK         0.0000 
@<TRIPOS>BOND
     1    1    7 nc   
     2    1   11 nc   
     3    1   14 nc   
     4    1   32 nc   
     5    1   36 nc   
     6    1   39 nc   
     7    2    3 1    
     8    2   19 1    
     9    3   21 1    
    10    3   20 1    
    11    3    4 1    
    12    4    5 1    
    13    4    6 1    
    14    4    9 1    
    15    6    7 1    
    16    6    8 2    
    17    9   10 am   BACKBONE|DICT|INTERRES
    18    9   22 1    
    19   10   12 1    
    20   10   11 2    
    21   12   13 ar   
    22   12   18 ar   
    23   13   14 1    
    24   13   15 ar   
    25   15   23 1    
    26   15   16 ar   
    27   16   17 ar   
    28   16   24 1    
    29   17   18 ar   
    30   17   25 1    
    31   18   26 1    
    32   27   28 1    
    33   27   44 1    
    34   28   46 1    
    35   28   29 1    
    36   28   45 1    
    37   29   31 1    
    38   29   30 1    
    39   29   34 1    
    40   31   33 2    
    41   31   32 1    
    42   34   35 am   BACKBONE|DICT|INTERRES
    43   34   47 1    
    44   35   37 1    
    45   35   36 2    
    46   37   38 ar   
    47   37   43 ar   
    48   38   39 1    
    49   38   40 ar   
    50   40   41 ar   
    51   40   48 1    
    52   41   42 ar   
    53   41   49 1    
    54   42   43 ar   
    55   42   50 1    
    56   43   51 1    
@<TRIPOS>SUBSTRUCTURE
     1 UNK         1 GROUP             0       ****    0 ROOT    
