@<TRIPOS>MOLECULE
054_B_c1
146   150    1
SMALL
USER_CHARGES


@<TRIPOS>ATOM
      1 Fe1         0.0653    0.3727   -2.9182 Fe        1 UNK         0.0000 
      2 O2         -0.0132   -0.6293   -4.8265 O.co2     1 UNK         0.0000 
      3 C3         -0.0012    0.2366   -5.7170 C.2       1 UNK         0.0000 
      4 C4          0.6568   -0.0196   -7.0804 C.3       1 UNK         0.0000 
      5 N5         -0.5568    1.4316   -5.3998 N.am      1 UNK         0.0000 
      6 O6         -1.2442    1.5838   -4.2833 O.co2     1 UNK         0.0000 
      7 C7         -0.4852    2.6451   -6.2482 C.3       1 UNK         0.0000 
      8 C8         -0.7280    3.9983   -5.5362 C.3       1 UNK         0.0000 
      9 C9         -0.6246    5.2153   -6.4752 C.3       1 UNK         0.0000 
     10 C10        -0.8335    6.5623   -5.7495 C.3       1 UNK         0.0000 
     11 H11        -1.8248    6.5474   -5.2880 H         1 UNK         0.0000 
     12 C12        -0.7785    7.7223   -6.7648 C.2       1 UNK         0.0000 
     13 O13        -2.0017    8.2742   -6.9529 O.3       1 UNK         0.0000 
     14 O14         0.2249    8.0772   -7.3464 O.2       1 UNK         0.0000 
     15 N15         0.1987    6.7853   -4.7372 N.am      1 UNK         0.0000 
     16 C16        -0.0467    6.8405   -3.4244 C.2       1 UNK         0.0000 
     17 O17        -1.1595    6.6410   -2.9324 O.2       1 UNK         0.0000 
     18 C18         1.1583    7.1578   -2.5152 C.3       1 UNK         0.0000 
     19 H19         1.8797    6.3699   -2.6999 H         1 UNK         0.0000 
     20 C20         1.7926    8.5506   -2.7790 C.3       1 UNK         0.0000 
     21 O21         0.8256    9.5816   -2.6961 O.3       1 UNK         0.0000 
     22 N22         0.6697    7.1243   -1.1471 N.am      1 UNK         0.0000 
     23 C23         1.2193    6.9377    0.0555 C.2       1 UNK         0.0000 
     24 O24         0.5407    7.2445    1.0356 O.2       1 UNK         0.0000 
     25 C25         2.6952    6.4590    0.2883 C.3       1 UNK         0.0000 
     26 H26         3.2825    7.3667    0.1383 H         1 UNK         0.0000 
     27 C27         3.3334    5.3773   -0.6471 C.3       1 UNK         0.0000 
     28 C28         2.5450    4.0683   -0.9195 C.3       1 UNK         0.0000 
     29 C29         3.3175    3.0006   -1.7454 C.3       1 UNK         0.0000 
     30 N30         2.5580    1.7937   -2.1321 N.am      1 UNK         0.0000 
     31 O31         1.2367    1.8867   -2.1363 O.co2     1 UNK         0.0000 
     32 C32         3.0880    0.6578   -2.6457 C.2       1 UNK         0.0000 
     33 O33         2.2330   -0.1495   -3.0218 O.co2     1 UNK         0.0000 
     34 C34         4.5977    0.4433   -2.8033 C.3       1 UNK         0.0000 
     35 N35         2.9224    6.1416    1.7125 N.am      1 UNK         0.0000 
     36 C36         2.2415    5.2517    2.4621 C.2       1 UNK         0.0000 
     37 O37         1.4198    4.4570    2.0103 O.2       1 UNK         0.0000 
     38 C38         2.4256    5.3735    3.9919 C.3       1 UNK         0.0000 
     39 H39         2.0278    6.3608    4.2280 H         1 UNK         0.0000 
     40 C40         3.8965    5.3236    4.4689 C.3       1 UNK         0.0000 
     41 C41         4.0390    5.7125    5.9552 C.3       1 UNK         0.0000 
     42 C42         5.4788    5.7218    6.4573 C.2       1 UNK         0.0000 
     43 O43         6.4300    5.5034    5.7168 O.2       1 UNK         0.0000 
     44 N44         5.6597    6.0028    7.7412 N.am      1 UNK         0.0000 
     45 N45         1.6048    4.4364    4.7676 N.am      1 UNK         0.0000 
     46 C46         1.6634    3.0957    4.7555 C.2       1 UNK         0.0000 
     47 O47         2.4977    2.4408    4.1295 O.2       1 UNK         0.0000 
     48 C48         0.6217    2.3438    5.6034 C.3       1 UNK         0.0000 
     49 H49         1.1943    1.5931    6.1472 H         1 UNK         0.0000 
     50 C50        -0.1577    3.1812    6.6639 C.3       1 UNK         0.0000 
     51 O51         0.6459    3.9159    7.5771 O.3       1 UNK         0.0000 
     52 N52        -0.3296    1.6886    4.7030 N.am      1 UNK         0.0000 
     53 C53        -0.4935    0.3698    4.5754 C.2       1 UNK         0.0000 
     54 O54         0.1555   -0.4712    5.1979 O.2       1 UNK         0.0000 
     55 C55        -1.5610   -0.1075    3.5770 C.3       1 UNK         0.0000 
     56 H56        -2.0844   -0.9207    4.0834 H         1 UNK         0.0000 
     57 C57        -2.6456    0.9093    3.1306 C.3       1 UNK         0.0000 
     58 O58        -2.1371    2.0641    2.4916 O.3       1 UNK         0.0000 
     59 N59        -0.8834   -0.6398    2.4072 N.am      1 UNK         0.0000 
     60 C60        -1.3434   -1.6896    1.7149 C.2       1 UNK         0.0000 
     61 O61        -2.3680   -2.2898    2.0381 O.2       1 UNK         0.0000 
     62 C62        -0.4613   -2.1948    0.5311 C.3       1 UNK         0.0000 
     63 H63         0.5560   -1.8991    0.7981 H         1 UNK         0.0000 
     64 C64        -0.7156   -1.4802   -0.8106 C.2       1 UNK         0.0000 
     65 O65         0.1575   -1.2133   -1.6894 O.co2     1 UNK         0.0000 
     66 C66        -1.8748   -0.5078   -1.1680 C.2       1 UNK         0.0000 
     67 O67        -1.3902    0.2633   -2.0523 O.co2     1 UNK         0.0000 
     68 O68        -2.9941   -0.5689   -0.6336 O.co2     1 UNK         0.0000 
     69 N69        -0.3418   -3.6729    0.3964 N.am      1 UNK         0.0000 
     70 C70        -1.2809   -4.5821    0.0807 C.2       1 UNK         0.0000 
     71 O71        -2.3487   -4.3017   -0.4514 O.2       1 UNK         0.0000 
     72 C72        -0.8913   -6.0250    0.4118 C.3       1 UNK         0.0000 
     73 C73        -2.0012   -7.0931    0.3085 C.3       1 UNK         0.0000 
     74 C74        -1.4185   -8.4911    0.5881 C.3       1 UNK         0.0000 
     75 C75        -2.4146   -9.6610    0.4764 C.3       1 UNK         0.0000 
     76 C76        -1.7127  -10.9987    0.7821 C.3       1 UNK         0.0000 
     77 C77        -2.5981  -12.2470    0.6590 C.3       1 UNK         0.0000 
     78 C78        -3.7768  -12.2941    1.6495 C.3       1 UNK         0.0000 
     79 C79        -4.3349  -13.7109    1.8869 C.3       1 UNK         0.0000 
     80 C80        -4.8438  -14.4155    0.6154 C.3       1 UNK         0.0000 
     81 C81        -5.3445  -15.8445    0.8857 C.3       1 UNK         0.0000 
     82 C82        -5.7948  -16.5694   -0.3905 C.3       1 UNK         0.0000 
     83 H83         1.7182   -0.2513   -6.9897 H         1 UNK         0.0000 
     84 H84         0.1692   -0.8817   -7.5230 H         1 UNK         0.0000 
     85 H85         0.5512    0.7991   -7.7918 H         1 UNK         0.0000 
     86 H86        -1.2253    2.5525   -7.0407 H         1 UNK         0.0000 
     87 H87         0.4790    2.7134   -6.7491 H         1 UNK         0.0000 
     88 H88        -0.0352    4.0992   -4.7035 H         1 UNK         0.0000 
     89 H89        -1.7312    3.9864   -5.1103 H         1 UNK         0.0000 
     90 H90        -1.3776    5.1221   -7.2580 H         1 UNK         0.0000 
     91 H91         0.3403    5.2218   -6.9814 H         1 UNK         0.0000 
     92 H92         1.1048    7.0347   -5.0977 H         1 UNK         0.0000 
     93 H93         2.2470    8.6040   -3.7709 H         1 UNK         0.0000 
     94 H94         2.5907    8.7496   -2.0640 H         1 UNK         0.0000 
     95 H95         1.2437   10.4311   -2.8348 H         1 UNK         0.0000 
     96 H96        -0.3157    7.3541   -1.1450 H         1 UNK         0.0000 
     97 H97         4.2906    5.1061   -0.1960 H         1 UNK         0.0000 
     98 H98         3.6073    5.8406   -1.5940 H         1 UNK         0.0000 
     99 H99         2.2765    3.5796    0.0082 H         1 UNK         0.0000 
    100 H100        1.6155    4.3128   -1.4246 H         1 UNK         0.0000 
    101 H101        3.6716    3.4539   -2.6665 H         1 UNK         0.0000 
    102 H102        4.2238    2.7266   -1.2102 H         1 UNK         0.0000 
    103 H103        5.1051    0.5027   -1.8420 H         1 UNK         0.0000 
    104 H104        5.0323    1.1924   -3.4661 H         1 UNK         0.0000 
    105 H105        4.8075   -0.5350   -3.2323 H         1 UNK         0.0000 
    106 H106        3.5300    6.7851    2.1923 H         1 UNK         0.0000 
    107 H107        4.5169    5.9829    3.8643 H         1 UNK         0.0000 
    108 H108        4.3083    4.3266    4.3206 H         1 UNK         0.0000 
    109 H109        3.4720    5.0115    6.5678 H         1 UNK         0.0000 
    110 H110        3.6082    6.7009    6.1174 H         1 UNK         0.0000 
    111 H111        4.8787    6.1821    8.3494 H         1 UNK         0.0000 
    112 H112        6.5972    6.0115    8.1037 H         1 UNK         0.0000 
    113 H113        0.9358    4.8579    5.3938 H         1 UNK         0.0000 
    114 H114       -0.8352    3.8893    6.1844 H         1 UNK         0.0000 
    115 H115       -0.7760    2.5136    7.2627 H         1 UNK         0.0000 
    116 H116        0.1603    4.0022    8.4017 H         1 UNK         0.0000 
    117 H117       -0.7837    2.2561    3.9893 H         1 UNK         0.0000 
    118 H118       -3.2232    1.2237    3.9989 H         1 UNK         0.0000 
    119 H119       -3.3422    0.4461    2.4307 H         1 UNK         0.0000 
    120 H120       -2.6335    2.1630    1.6677 H         1 UNK         0.0000 
    121 H121       -0.0228   -0.1620    2.1942 H         1 UNK         0.0000 
    122 H122        0.4786   -4.0711    0.8256 H         1 UNK         0.0000 
    123 H123       -0.0808   -6.2928   -0.2636 H         1 UNK         0.0000 
    124 H124       -0.4895   -6.0404    1.4249 H         1 UNK         0.0000 
    125 H125       -2.4468   -7.0710   -0.6864 H         1 UNK         0.0000 
    126 H126       -2.7972   -6.8740    1.0226 H         1 UNK         0.0000 
    127 H127       -0.5951   -8.6760   -0.1047 H         1 UNK         0.0000 
    128 H128       -0.9855   -8.5033    1.5912 H         1 UNK         0.0000 
    129 H129       -2.8461   -9.6905   -0.5278 H         1 UNK         0.0000 
    130 H130       -3.2463   -9.5070    1.1687 H         1 UNK         0.0000 
    131 H131       -0.8650  -11.1112    0.1040 H         1 UNK         0.0000 
    132 H132       -1.2854  -10.9614    1.7852 H         1 UNK         0.0000 
    133 H133       -2.9737  -12.3288   -0.3608 H         1 UNK         0.0000 
    134 H134       -1.9627  -13.1188    0.8142 H         1 UNK         0.0000 
    135 H135       -3.4608  -11.8896    2.6123 H         1 UNK         0.0000 
    136 H136       -4.5718  -11.6354    1.2973 H         1 UNK         0.0000 
    137 H137       -3.5617  -14.3210    2.3555 H         1 UNK         0.0000 
    138 H138       -5.1466  -13.6522    2.6137 H         1 UNK         0.0000 
    139 H139       -5.6429  -13.8213    0.1682 H         1 UNK         0.0000 
    140 H140       -4.0420  -14.4603   -0.1234 H         1 UNK         0.0000 
    141 H141       -6.1718  -15.8141    1.5969 H         1 UNK         0.0000 
    142 H142       -4.5500  -16.4234    1.3612 H         1 UNK         0.0000 
    143 H143       -4.9783  -16.6516   -1.1088 H         1 UNK         0.0000 
    144 H144       -6.1354  -17.5801   -0.1643 H         1 UNK         0.0000 
    145 H145       -6.6178  -16.0439   -0.8752 H         1 UNK         0.0000 
    146 H146       -1.8902    8.9824   -7.5863 H         1 UNK         0.0000 
@<TRIPOS>BOND
     1    1    2 nc   
     2    1    6 nc   
     3    1   31 nc   
     4    1   33 nc   
     5    1   65 nc   
     6    1   67 nc   
     7    2    3 2    
     8    3    5 am   BACKBONE|DICT|INTERRES
     9    3    4 1    
    10    4   83 1    
    11    4   84 1    
    12    4   85 1    
    13    5    6 1    
    14    5    7 1    
    15    7    8 1    
    16    7   86 1    
    17    7   87 1    
    18    8   89 1    
    19    8   88 1    
    20    8    9 1    
    21    9   10 1    
    22    9   90 1    
    23    9   91 1    
    24   10   11 1    
    25   10   15 1    
    26   10   12 1    
    27   12   13 1    
    28   12   14 2    
    29   13  146 1    
    30   15   16 am   BACKBONE|DICT|INTERRES
    31   15   92 1    
    32   16   17 2    
    33   16   18 1    
    34   18   19 1    
    35   18   22 1    
    36   18   20 1    
    37   20   21 1    
    38   20   94 1    
    39   20   93 1    
    40   21   95 1    
    41   22   96 1    
    42   22   23 am   BACKBONE|DICT|INTERRES
    43   23   25 1    
    44   23   24 2    
    45   25   26 1    
    46   25   35 1    
    47   25   27 1    
    48   27   97 1    
    49   27   28 1    
    50   27   98 1    
    51   28   99 1    
    52   28   29 1    
    53   28  100 1    
    54   29  102 1    
    55   29   30 1    
    56   29  101 1    
    57   30   31 1    
    58   30   32 am   BACKBONE|DICT|INTERRES
    59   32   33 2    
    60   32   34 1    
    61   34  103 1    
    62   34  104 1    
    63   34  105 1    
    64   35  106 1    
    65   35   36 am   BACKBONE|DICT|INTERRES
    66   36   38 1    
    67   36   37 2    
    68   38   39 1    
    69   38   40 1    
    70   38   45 1    
    71   40   41 1    
    72   40  107 1    
    73   40  108 1    
    74   41  110 1    
    75   41   42 1    
    76   41  109 1    
    77   42   44 am   BACKBONE|DICT|INTERRES
    78   42   43 2    
    79   44  112 1    
    80   44  111 1    
    81   45  113 1    
    82   45   46 am   BACKBONE|DICT|INTERRES
    83   46   48 1    
    84   46   47 2    
    85   48   49 1    
    86   48   50 1    
    87   48   52 1    
    88   50  115 1    
    89   50   51 1    
    90   50  114 1    
    91   51  116 1    
    92   52   53 am   BACKBONE|DICT|INTERRES
    93   52  117 1    
    94   53   54 2    
    95   53   55 1    
    96   55   56 1    
    97   55   57 1    
    98   55   59 1    
    99   57  118 1    
   100   57   58 1    
   101   57  119 1    
   102   58  120 1    
   103   59   60 am   BACKBONE|DICT|INTERRES
   104   59  121 1    
   105   60   61 2    
   106   60   62 1    
   107   62   69 1    
   108   62   63 1    
   109   62   64 1    
   110   64   66 1    
   111   64   65 2    
   112   66   67 1    
   113   66   68 2    
   114   69  122 1    
   115   69   70 am   BACKBONE|DICT|INTERRES
   116   70   72 1    
   117   70   71 2    
   118   72  124 1    
   119   72   73 1    
   120   72  123 1    
   121   73   74 1    
   122   73  126 1    
   123   73  125 1    
   124   74  128 1    
   125   74   75 1    
   126   74  127 1    
   127   75   76 1    
   128   75  130 1    
   129   75  129 1    
   130   76  132 1    
   131   76   77 1    
   132   76  131 1    
   133   77  134 1    
   134   77   78 1    
   135   77  133 1    
   136   78   79 1    
   137   78  135 1    
   138   78  136 1    
   139   79  137 1    
   140   79  138 1    
   141   79   80 1    
   142   80   81 1    
   143   80  139 1    
   144   80  140 1    
   145   81  142 1    
   146   81  141 1    
   147   81   82 1    
   148   82  144 1    
   149   82  143 1    
   150   82  145 1    
@<TRIPOS>SUBSTRUCTURE
     1 UNK         1 GROUP             0       ****    0 ROOT    
