@<TRIPOS>MOLECULE
089_c1
54   58    1
SMALL
USER_CHARGES


@<TRIPOS>ATOM
      1 C1         -0.1823    4.5510   -2.2903 C.3       1 UNK         0.0000 
      2 C2          0.0006    3.1954   -2.9318 C.2       1 UNK         0.0000 
      3 O3          1.0300    2.3961   -2.6058 O.co2     1 UNK         0.0000 
      4 N4         -0.9087    2.6407   -3.7548 N.am      1 UNK         0.0000 
      5 C5         -0.8942    1.3221   -4.4041 C.3       1 UNK         0.0000 
      6 C6         -2.2393    0.5557   -4.2914 C.3       1 UNK         0.0000 
      7 C7         -2.7521    0.2153   -2.8631 C.3       1 UNK         0.0000 
      8 N8         -1.9885   -0.8310   -2.1696 N.am      1 UNK         0.0000 
      9 C9         -1.1510   -0.5609   -1.1708 C.2       1 UNK         0.0000 
     10 O10        -0.0337   -0.0498   -1.6696 O.co2     1 UNK         0.0000 
     11 C11        -1.3770   -0.7333    0.3748 C.3       1 UNK         0.0000 
     12 C12        -0.7002    0.3196    1.3535 C.3       1 UNK         0.0000 
     13 C13        -1.3566    1.7581    1.1822 C.2       1 UNK         0.0000 
     14 O14        -0.7571    2.4644    0.0935 O.co2     1 UNK         0.0000 
     15 O15        -2.2805    2.1928    1.9018 O.co2     1 UNK         0.0000 
     16 O16         0.7132    0.3840    1.0184 O.co2     1 UNK         0.0000 
     17 C17        -0.6191   -0.1618    2.8618 C.3       1 UNK         0.0000 
     18 C18         0.3893   -1.3277    3.1737 C.2       1 UNK         0.0000 
     19 O19         0.0187   -2.4497    3.4897 O.2       1 UNK         0.0000 
     20 N20         1.6914   -1.0093    2.9961 N.am      1 UNK         0.0000 
     21 C21         2.8240   -1.8969    2.7449 C.3       1 UNK         0.0000 
     22 C22         3.2901   -1.8579    1.2508 C.3       1 UNK         0.0000 
     23 C23         4.1426   -0.6477    0.7447 C.3       1 UNK         0.0000 
     24 N24         3.4088    0.5234    0.2306 N.am      1 UNK         0.0000 
     25 O25         2.7947    0.3396   -1.0226 O.co2     1 UNK         0.0000 
     26 C26         3.4734    1.8311    0.6356 C.2       1 UNK         0.0000 
     27 O27         2.4804    2.6515    0.1238 O.co2     1 UNK         0.0000 
     28 C28         4.4196    2.3418    1.7210 C.3       1 UNK         0.0000 
     29 H29        -0.0803    5.3606   -3.0106 H         1 UNK         0.0000 
     30 H30         0.5576    4.6910   -1.4965 H         1 UNK         0.0000 
     31 H31        -1.1631    4.6123   -1.8051 H         1 UNK         0.0000 
     32 H32        -1.7441    3.1869   -3.9220 H         1 UNK         0.0000 
     33 H33        -0.1131    0.6975   -3.9807 H         1 UNK         0.0000 
     34 H34        -0.6193    1.4481   -5.4571 H         1 UNK         0.0000 
     35 H35        -2.9939    1.1334   -4.8155 H         1 UNK         0.0000 
     36 H36        -2.1403   -0.3675   -4.8627 H         1 UNK         0.0000 
     37 H37        -3.7841   -0.1155   -2.9423 H         1 UNK         0.0000 
     38 H38        -2.7709    1.1283   -2.2733 H         1 UNK         0.0000 
     39 H39        -1.7409   -1.6219   -2.7478 H         1 UNK         0.0000 
     40 H40        -1.0774   -1.7503    0.6458 H         1 UNK         0.0000 
     41 H41        -2.4491   -0.6656    0.5508 H         1 UNK         0.0000 
     42 H42        -1.6127   -0.4372    3.2087 H         1 UNK         0.0000 
     43 H43        -0.3086    0.6623    3.5005 H         1 UNK         0.0000 
     44 H44         1.7048   -0.1239    2.4963 H         1 UNK         0.0000 
     45 H45         2.5985   -2.9242    3.0501 H         1 UNK         0.0000 
     46 H46         3.6382   -1.5527    3.3826 H         1 UNK         0.0000 
     47 H47         2.4452   -2.0374    0.5799 H         1 UNK         0.0000 
     48 H48         3.9162   -2.7358    1.1401 H         1 UNK         0.0000 
     49 H49         4.8585   -0.3605    1.5126 H         1 UNK         0.0000 
     50 H50         4.7699   -1.0030   -0.0722 H         1 UNK         0.0000 
     51 H51         5.4572    2.3644    1.3910 H         1 UNK         0.0000 
     52 H52         4.3402    1.7098    2.6049 H         1 UNK         0.0000 
     53 H53         4.1538    3.3524    2.0225 H         1 UNK         0.0000 
     54 Fe54        1.0239    1.4218   -0.7226 Fe        1 UNK         0.0000 
@<TRIPOS>BOND
     1    1    2 1    
     2    1   29 1    
     3    1   30 1    
     4    1   31 1    
     5    2    3 2    
     6    2    4 am   BACKBONE|DICT|INTERRES
     7    3   54 nc   
     8    4    5 1    
     9    4   32 1    
    10    5    6 1    
    11    5   33 1    
    12    5   34 1    
    13    6    7 1    
    14    6   35 1    
    15    6   36 1    
    16    7    8 1    
    17    7   37 1    
    18    7   38 1    
    19    8    9 am   BACKBONE|DICT|INTERRES
    20    8   39 1    
    21    9   10 2    
    22    9   11 1    
    23   10   54 nc   
    24   11   12 1    
    25   11   40 1    
    26   11   41 1    
    27   12   13 1    
    28   12   16 1    
    29   12   17 1    
    30   13   14 1    
    31   13   15 2    
    32   14   54 nc   
    33   16   54 nc   
    34   17   18 1    
    35   17   42 1    
    36   17   43 1    
    37   18   19 2    
    38   18   20 am   BACKBONE|DICT|INTERRES
    39   20   21 1    
    40   20   44 1    
    41   21   22 1    
    42   21   45 1    
    43   21   46 1    
    44   22   23 1    
    45   22   47 1    
    46   22   48 1    
    47   23   24 1    
    48   23   49 1    
    49   23   50 1    
    50   24   25 1    
    51   24   26 am   BACKBONE|DICT|INTERRES
    52   25   54 nc   
    53   26   27 2    
    54   26   28 1    
    55   27   54 nc   
    56   28   51 1    
    57   28   52 1    
    58   28   53 1    
@<TRIPOS>SUBSTRUCTURE
     1 UNK         1 GROUP             0       ****    0 ROOT    
