@<TRIPOS>MOLECULE
035_c1
101   109    1
SMALL
USER_CHARGES


@<TRIPOS>ATOM
      1 Fe1        -1.9824   -0.4395   -1.4653 Fe        1 UNK         0.0000 
      2 C2         -2.3416   -4.9664    3.3877 C.ar      1 UNK         0.0000 
      3 C3         -3.2283   -5.9081    3.9436 C.ar      1 UNK         0.0000 
      4 C4         -2.9685   -7.2924    3.8327 C.ar      1 UNK         0.0000 
      5 C5         -1.8215   -7.7499    3.1623 C.ar      1 UNK         0.0000 
      6 C6         -0.9619   -6.7969    2.6216 C.ar      1 UNK         0.0000 
      7 C7         -1.2101   -5.4487    2.7296 C.ar      1 UNK         0.0000 
      8 N8          0.1875   -7.0230    1.9644 N.pl3     1 UNK         0.0000 
      9 H9          0.6198   -7.9486    1.7484 H         1 UNK         0.0000 
     10 C10         0.6900   -5.8093    1.6553 C.ar      1 UNK         0.0000 
     11 C11        -0.1561   -4.8009    2.1148 C.ar      1 UNK         0.0000 
     12 C12         0.1154   -3.3245    2.0027 C.3       1 UNK         0.0000 
     13 C13         0.3420   -2.8599    0.5497 C.3       1 UNK         0.0000 
     14 H14         0.9674   -3.6309    0.0476 H         1 UNK         0.0000 
     15 C15        -0.9932   -2.7826   -0.2440 C.2       1 UNK         0.0000 
     16 O16        -2.0116   -1.8873    0.0155 O.co2     1 UNK         0.0000 
     17 O17        -1.1348   -3.5436   -1.1884 O.co2     1 UNK         0.0000 
     18 N18         1.2078   -1.6657    0.5785 N.am      1 UNK         0.0000 
     19 C19         0.9301   -0.4472    0.0549 C.2       1 UNK         0.0000 
     20 O20        -0.0999   -0.2881   -0.5402 O.co2     1 UNK         0.0000 
     21 C21         1.8708    0.7501    0.1459 C.3       1 UNK         0.0000 
     22 H22         1.2542    1.6283   -0.1547 H         1 UNK         0.0000 
     23 C23         3.0395    0.6073   -0.8669 C.3       1 UNK         0.0000 
     24 C24         2.4601    0.8192   -2.2819 C.3       1 UNK         0.0000 
     25 C25         3.3525    0.3660   -3.4517 C.3       1 UNK         0.0000 
     26 C26         2.6185    0.5013   -4.8168 C.3       1 UNK         0.0000 
     27 N27         1.3736   -0.2532   -4.8170 N.am      1 UNK         0.0000 
     28 C28         0.5060   -0.3610   -5.8595 C.2       1 UNK         0.0000 
     29 O29         0.7916    0.0733   -6.9656 O.2       1 UNK         0.0000 
     30 C30        -0.7408   -1.1352   -5.6283 C.ar      1 UNK         0.0000 
     31 C31        -1.4568   -1.0108   -4.4157 C.ar      1 UNK         0.0000 
     32 O32        -1.3108   -0.1122   -3.4369 O.co2     1 UNK         0.0000 
     33 C33        -2.4528   -1.8082   -4.0959 C.ar      1 UNK         0.0000 
     34 O34        -2.8668   -1.5326   -2.8527 O.co2     1 UNK         0.0000 
     35 C35        -2.9281   -2.7870   -4.9731 C.ar      1 UNK         0.0000 
     36 C36        -2.3074   -2.9059   -6.2318 C.ar      1 UNK         0.0000 
     37 C37        -1.2077   -2.0834   -6.5607 C.ar      1 UNK         0.0000 
     38 N38         2.3056    0.9851    1.5152 N.am      1 UNK         0.0000 
     39 C39         2.7017    2.2076    1.9820 C.2       1 UNK         0.0000 
     40 O40         2.9301    2.3270    3.1775 O.2       1 UNK         0.0000 
     41 C41         2.8281    3.4461    1.0905 C.3       1 UNK         0.0000 
     42 H42         2.7573    3.1678    0.0239 H         1 UNK         0.0000 
     43 N43         4.1385    4.0833    1.2764 N.4       1 UNK         0.0000 
     44 H44         4.8942    3.4052    1.0241 H         1 UNK         0.0000 
     45 H45         4.2236    4.9175    0.6514 H         1 UNK         0.0000 
     46 H46         4.2787    4.3814    2.2682 H         1 UNK         0.0000 
     47 C47         1.6513    4.4390    1.2834 C.3       1 UNK         0.0000 
     48 C48         1.5417    5.0761    2.6741 C.3       1 UNK         0.0000 
     49 C49         0.3589    6.0539    2.8363 C.3       1 UNK         0.0000 
     50 C50         0.4119    7.2780    1.9006 C.3       1 UNK         0.0000 
     51 N51        -0.0906    7.0057    0.5597 N.am      1 UNK         0.0000 
     52 C52        -1.4236    6.8589    0.3018 C.2       1 UNK         0.0000 
     53 O53        -2.2373    6.9134    1.2140 O.2       1 UNK         0.0000 
     54 C54        -1.9386    6.7463   -1.1159 C.3       1 UNK         0.0000 
     55 N55        -2.9214    5.6836   -1.2446 N.am      1 UNK         0.0000 
     56 C56        -2.6207    4.3594   -1.1327 C.2       1 UNK         0.0000 
     57 O57        -1.4566    4.0287   -0.9627 O.2       1 UNK         0.0000 
     58 C58        -3.6894    3.3029   -1.1776 C.ar      1 UNK         0.0000 
     59 C59        -3.3917    1.9220   -1.1196 C.ar      1 UNK         0.0000 
     60 O60        -2.3123    1.1519   -1.0534 O.co2     1 UNK         0.0000 
     61 C61        -4.1756    1.0595   -1.0663 C.ar      1 UNK         0.0000 
     62 O62        -3.2928    0.0312   -0.9239 O.co2     1 UNK         0.0000 
     63 C63        -5.5623    1.2099   -1.0832 C.ar      1 UNK         0.0000 
     64 C64        -6.0307    2.5350   -1.1838 C.ar      1 UNK         0.0000 
     65 C65        -5.0889    3.5975   -1.2264 C.ar      1 UNK         0.0000 
     66 H66        -2.5339   -3.9057    3.4767 H         1 UNK         0.0000 
     67 H67        -4.1138   -5.5698    4.4648 H         1 UNK         0.0000 
     68 H68        -3.6535   -8.0071    4.2695 H         1 UNK         0.0000 
     69 H69        -1.6080   -8.8079    3.0766 H         1 UNK         0.0000 
     70 H70         1.6295   -5.6631    1.1363 H         1 UNK         0.0000 
     71 H71        -0.6599   -2.7001    2.4948 H         1 UNK         0.0000 
     72 H72         1.0616   -3.1853    2.5693 H         1 UNK         0.0000 
     73 H73         2.1176   -1.7736    1.0524 H         1 UNK         0.0000 
     74 H74         3.4890   -0.4024   -0.7456 H         1 UNK         0.0000 
     75 H75         3.8439    1.3561   -0.7142 H         1 UNK         0.0000 
     76 H76         1.5358    0.2384   -2.3159 H         1 UNK         0.0000 
     77 H77         2.1717    1.8858   -2.4100 H         1 UNK         0.0000 
     78 H78         3.6214   -0.7026   -3.3022 H         1 UNK         0.0000 
     79 H79         4.2879    0.9653   -3.4659 H         1 UNK         0.0000 
     80 H80         2.3929    1.5734   -5.0032 H         1 UNK         0.0000 
     81 H81         3.2829    0.1291   -5.6260 H         1 UNK         0.0000 
     82 H82         1.1264   -0.7957   -3.9821 H         1 UNK         0.0000 
     83 H83        -3.7507   -3.4329   -4.6953 H         1 UNK         0.0000 
     84 H84        -2.6527   -3.6524   -6.9351 H         1 UNK         0.0000 
     85 H85        -0.7019   -2.2202   -7.5082 H         1 UNK         0.0000 
     86 H86         2.1780    0.2351    2.2126 H         1 UNK         0.0000 
     87 H87         0.6991    3.9110    1.0557 H         1 UNK         0.0000 
     88 H88         1.7871    5.2428    0.5337 H         1 UNK         0.0000 
     89 H89         2.4782    5.6291    2.8979 H         1 UNK         0.0000 
     90 H90         1.4146    4.2821    3.4383 H         1 UNK         0.0000 
     91 H91        -0.6200    5.5353    2.7551 H         1 UNK         0.0000 
     92 H92         0.4439    6.4355    3.8776 H         1 UNK         0.0000 
     93 H93        -0.2025    8.1001    2.3298 H         1 UNK         0.0000 
     94 H94         1.4585    7.6508    1.8604 H         1 UNK         0.0000 
     95 H95         0.5689    7.0506   -0.2314 H         1 UNK         0.0000 
     96 H96        -2.4519    7.7076   -1.3355 H         1 UNK         0.0000 
     97 H97        -1.1198    6.6263   -1.8580 H         1 UNK         0.0000 
     98 H98        -3.8866    5.9815   -1.4298 H         1 UNK         0.0000 
     99 H99        -6.2329    0.3635   -1.0160 H         1 UNK         0.0000 
    100 H100       -7.0933    2.7383   -1.2037 H         1 UNK         0.0000 
    101 H101       -5.4756    4.6027   -1.2685 H         1 UNK         0.0000 
@<TRIPOS>BOND
     1    1   16 nc   
     2    1   20 nc   
     3    1   32 nc   
     4    1   34 nc   
     5    1   60 nc   
     6    1   62 nc   
     7    2   66 1    
     8    2    3 ar   
     9    2    7 ar   
    10    3   67 1    
    11    3    4 ar   
    12    4   68 1    
    13    4    5 ar   
    14    5    6 ar   
    15    5   69 1    
    16    6    7 ar   
    17    6    8 ar   
    18    7   11 ar   
    19    8    9 1    
    20    8   10 ar   
    21   10   11 ar   
    22   10   70 1    
    23   11   12 1    
    24   12   71 1    
    25   12   72 1    
    26   12   13 1    
    27   13   14 1    
    28   13   18 1    
    29   13   15 1    
    30   15   16 1    
    31   15   17 2    
    32   18   73 1    
    33   18   19 am   BACKBONE|DICT|INTERRES
    34   19   21 1    
    35   19   20 2    
    36   21   22 1    
    37   21   38 1    
    38   21   23 1    
    39   23   74 1    
    40   23   75 1    
    41   23   24 1    
    42   24   25 1    
    43   24   76 1    
    44   24   77 1    
    45   25   78 1    
    46   25   26 1    
    47   25   79 1    
    48   26   27 1    
    49   26   80 1    
    50   26   81 1    
    51   27   82 1    
    52   27   28 am   BACKBONE|DICT|INTERRES
    53   28   30 1    
    54   28   29 2    
    55   30   31 ar   
    56   30   37 ar   
    57   31   33 ar   
    58   31   32 1    
    59   33   34 1    
    60   33   35 ar   
    61   35   83 1    
    62   35   36 ar   
    63   36   37 ar   
    64   36   84 1    
    65   37   85 1    
    66   38   39 am   BACKBONE|DICT|INTERRES
    67   38   86 1    
    68   39   40 2    
    69   39   41 1    
    70   41   42 1    
    71   41   43 1    
    72   41   47 1    
    73   43   46 1    
    74   43   44 1    
    75   43   45 1    
    76   47   48 1    
    77   47   87 1    
    78   47   88 1    
    79   48   49 1    
    80   48   89 1    
    81   48   90 1    
    82   49   92 1    
    83   49   50 1    
    84   49   91 1    
    85   50   93 1    
    86   50   51 1    
    87   50   94 1    
    88   51   52 am   BACKBONE|DICT|INTERRES
    89   51   95 1    
    90   52   53 2    
    91   52   54 1    
    92   54   55 1    
    93   54   96 1    
    94   54   97 1    
    95   55   56 am   BACKBONE|DICT|INTERRES
    96   55   98 1    
    97   56   57 2    
    98   56   58 1    
    99   58   59 ar   
   100   58   65 ar   
   101   59   61 ar   
   102   59   60 1    
   103   61   62 1    
   104   61   63 ar   
   105   63   99 1    
   106   63   64 ar   
   107   64   65 ar   
   108   64  100 1    
   109   65  101 1    
@<TRIPOS>SUBSTRUCTURE
     1 UNK         1 GROUP             0       ****    0 ROOT    
