@<TRIPOS>MOLECULE
182_c1
72   78    1
SMALL
USER_CHARGES


@<TRIPOS>ATOM
      1 Fe1         0.0727    2.6512    1.4249 Fe        1 UNK         0.0000 
      2 C2          4.3474    1.5815    1.6711 C.ar      1 UNK         0.0000 
      3 C3          4.4936    2.9011    2.0835 C.ar      1 UNK         0.0000 
      4 C4          3.4163    3.5687    2.6455 C.ar      1 UNK         0.0000 
      5 C5          2.1984    2.9147    2.8088 C.ar      1 UNK         0.0000 
      6 O6          1.2381    3.6225    3.2605 O.co2     1 UNK         0.0000 
      7 C7          2.0413    1.5704    2.3858 C.ar      1 UNK         0.0000 
      8 O8          0.8767    1.0768    2.4040 O.co2     1 UNK         0.0000 
      9 C9          3.1259    0.8789    1.7854 C.ar      1 UNK         0.0000 
     10 C10         3.1327   -0.5737    1.2974 C.2       1 UNK         0.0000 
     11 O11         4.2009   -1.1839    1.2794 O.2       1 UNK         0.0000 
     12 N12         2.1244   -1.3357    0.8239 N.am      1 UNK         0.0000 
     13 C13         0.6932   -1.2727    0.4868 C.3       1 UNK         0.0000 
     14 H14         0.6483   -2.0809   -0.2439 H         1 UNK         0.0000 
     15 C15        -0.2086   -1.7983    1.6528 C.3       1 UNK         0.0000 
     16 C16        -1.5292   -2.4347    1.1735 C.3       1 UNK         0.0000 
     17 C17        -2.2474   -3.2736    2.2447 C.3       1 UNK         0.0000 
     18 N18        -3.3814   -4.0220    1.6593 N.pl3     1 UNK         0.0000 
     19 C19        -3.4624   -5.3382    1.4208 C.cat     1 UNK         0.0000 
     20 N20        -2.4897   -6.1627    1.8183 N.pl3     1 UNK         0.0000 
     21 N21        -4.5241   -5.8307    0.7782 N.pl3     1 UNK         0.0000 
     22 H22        -4.6119   -6.8146    0.5653 H         1 UNK         0.0000 
     23 H23        -5.3098   -5.2613    0.4880 H         1 UNK         0.0000 
     24 C24         0.1851   -0.0755   -0.3517 C.2       1 UNK         0.0000 
     25 O25        -0.7171    0.6576    0.0753 O.co2     1 UNK         0.0000 
     26 N26         0.7841    0.1404   -1.5368 N.am      1 UNK         0.0000 
     27 C27         0.7737    1.4445   -2.2469 C.3       1 UNK         0.0000 
     28 H28        -0.2155    1.8940   -2.1248 H         1 UNK         0.0000 
     29 C29         1.7878    2.3961   -1.4957 C.2       1 UNK         0.0000 
     30 O30         1.4878    2.5482   -0.2802 O.co2     1 UNK         0.0000 
     31 O31         2.8229    2.6836   -2.1397 O.co2     1 UNK         0.0000 
     32 C32         1.0325    1.2894   -3.7751 C.3       1 UNK         0.0000 
     33 C33         0.4827    2.3982   -4.7141 C.3       1 UNK         0.0000 
     34 C34         0.8702    3.8936   -4.4557 C.3       1 UNK         0.0000 
     35 N35        -0.2537    4.7528   -4.0401 N.am      1 UNK         0.0000 
     36 C36        -1.0694    5.3291   -4.9672 C.2       1 UNK         0.0000 
     37 O37        -2.2355    5.6939   -4.8046 O.2       1 UNK         0.0000 
     38 O38        -0.7196    4.4245   -2.7380 O.3       1 UNK         0.0000 
     39 C39        -1.1033    5.4961   -1.9326 C.2       1 UNK         0.0000 
     40 O40        -0.9010    6.6946   -2.1730 O.2       1 UNK         0.0000 
     41 C41        -2.0441    4.9802   -0.8764 C.ar      1 UNK         0.0000 
     42 C42        -1.5863    4.2389    0.2355 C.ar      1 UNK         0.0000 
     43 O43        -0.3681    4.2560    0.5725 O.co2     1 UNK         0.0000 
     44 C44        -2.4848    3.4775    1.0085 C.ar      1 UNK         0.0000 
     45 O45        -2.0615    2.6491    1.8897 O.co2     1 UNK         0.0000 
     46 C46        -3.8567    3.6149    0.7750 C.ar      1 UNK         0.0000 
     47 C47        -4.3281    4.4601   -0.2326 C.ar      1 UNK         0.0000 
     48 C48        -3.4242    5.1226   -1.0691 C.ar      1 UNK         0.0000 
     49 H49         5.2194    1.1006    1.2560 H         1 UNK         0.0000 
     50 H50         5.4417    3.4073    1.9769 H         1 UNK         0.0000 
     51 H51         3.5179    4.6060    2.9264 H         1 UNK         0.0000 
     52 H52         2.5355   -2.2223    0.6088 H         1 UNK         0.0000 
     53 H53         0.3575   -2.5523    2.2000 H         1 UNK         0.0000 
     54 H54        -0.4324   -1.0296    2.3932 H         1 UNK         0.0000 
     55 H55        -1.3877   -3.0335    0.2737 H         1 UNK         0.0000 
     56 H56        -2.1746   -1.5989    0.8904 H         1 UNK         0.0000 
     57 H57        -1.5714   -3.8644    2.8644 H         1 UNK         0.0000 
     58 H58        -2.7279   -2.5726    2.9298 H         1 UNK         0.0000 
     59 H59        -4.1161   -3.3914    1.3571 H         1 UNK         0.0000 
     60 H60        -1.7055   -5.8165    2.3536 H         1 UNK         0.0000 
     61 H61        -2.5041   -7.1575    1.6483 H         1 UNK         0.0000 
     62 H62         1.5890   -0.4177   -1.7560 H         1 UNK         0.0000 
     63 H63         0.6007    0.3463   -4.1007 H         1 UNK         0.0000 
     64 H64         2.1000    1.1663   -3.9444 H         1 UNK         0.0000 
     65 H65        -0.6039    2.3055   -4.7589 H         1 UNK         0.0000 
     66 H66         0.8239    2.1388   -5.7164 H         1 UNK         0.0000 
     67 H67         1.2839    4.2858   -5.3884 H         1 UNK         0.0000 
     68 H68         1.7008    4.0176   -3.7693 H         1 UNK         0.0000 
     69 H69        -0.5513    5.4018   -5.9354 H         1 UNK         0.0000 
     70 H70        -4.5511    3.0646    1.3996 H         1 UNK         0.0000 
     71 H71        -5.3863    4.5723   -0.3859 H         1 UNK         0.0000 
     72 H72        -3.7860    5.7191   -1.8978 H         1 UNK         0.0000 
@<TRIPOS>BOND
     1    1    6 nc   
     2    1    8 nc   
     3    1   25 nc   
     4    1   30 nc   
     5    1   43 nc   
     6    1   45 nc   
     7    2    9 ar   
     8    2    3 ar   
     9    2   49 1    
    10    3    4 ar   
    11    3   50 1    
    12    4    5 ar   
    13    4   51 1    
    14    5    6 1    
    15    5    7 ar   
    16    7    8 1    
    17    7    9 ar   
    18    9   10 1    
    19   10   11 2    
    20   10   12 am   BACKBONE|DICT|INTERRES
    21   12   13 1    
    22   12   52 1    
    23   13   14 1    
    24   13   15 1    
    25   13   24 1    
    26   15   53 1    
    27   15   54 1    
    28   15   16 1    
    29   16   17 1    
    30   16   55 1    
    31   16   56 1    
    32   17   57 1    
    33   17   58 1    
    34   17   18 1    
    35   18   19 ar   
    36   18   59 1    
    37   19   20 ar   
    38   19   21 ar   
    39   20   60 1    
    40   20   61 1    
    41   21   22 1    
    42   21   23 1    
    43   24   25 2    
    44   24   26 am   BACKBONE|DICT|INTERRES
    45   26   27 1    
    46   26   62 1    
    47   27   28 1    
    48   27   29 1    
    49   27   32 1    
    50   29   30 1    
    51   29   31 2    
    52   32   64 1    
    53   32   33 1    
    54   32   63 1    
    55   33   34 1    
    56   33   65 1    
    57   33   66 1    
    58   34   68 1    
    59   34   35 1    
    60   34   67 1    
    61   35   38 1    
    62   35   36 am   BACKBONE|DICT|INTERRES
    63   36   37 2    
    64   36   69 1    
    65   38   39 1    
    66   39   41 1    
    67   39   40 2    
    68   41   42 ar   
    69   41   48 ar   
    70   42   43 1    
    71   42   44 ar   
    72   44   45 1    
    73   44   46 ar   
    74   46   70 1    
    75   46   47 ar   
    76   47   48 ar   
    77   47   71 1    
    78   48   72 1    
@<TRIPOS>SUBSTRUCTURE
     1 UNK         1 GROUP             0       ****    0 ROOT    
