@<TRIPOS>MOLECULE
174_c1
43   48    1
SMALL
USER_CHARGES


@<TRIPOS>ATOM
      1 Fe1        -0.0006    0.0538   -0.0543 Fe        1 UNK         0.0000 
      2 C2          2.9256    1.0340   -3.3546 C.ar      1 UNK         0.0000 
      3 C3          2.2771    2.2677   -3.3412 C.ar      1 UNK         0.0000 
      4 C4          1.5831    2.6755   -2.2027 C.ar      1 UNK         0.0000 
      5 C5          1.5284    1.8499   -1.0797 C.ar      1 UNK         0.0000 
      6 O6          0.6869    2.1377   -0.1525 O.co2     1 UNK         0.0000 
      7 C7          2.2410    0.6310   -1.0711 C.ar      1 UNK         0.0000 
      8 O8          2.2054   -0.0928   -0.0263 O.co2     1 UNK         0.0000 
      9 C9          2.9198    0.1907   -2.2316 C.ar      1 UNK         0.0000 
     10 C10         3.6162   -1.1597   -2.3336 C.2       1 UNK         0.0000 
     11 O11         4.7627   -1.2400   -2.7810 O.2       1 UNK         0.0000 
     12 N12         2.9721   -2.2837   -1.9624 N.am      1 UNK         0.0000 
     13 C13         1.5170   -2.5110   -1.9177 C.3       1 UNK         0.0000 
     14 C14         0.9833   -2.8675   -0.5098 C.2       1 UNK         0.0000 
     15 O15         0.0739   -2.1258   -0.0181 O.co2     1 UNK         0.0000 
     16 O16         1.4324   -3.9240    0.0091 O.co2     1 UNK         0.0000 
     17 H17         3.4337    0.7202   -4.2573 H         1 UNK         0.0000 
     18 H18         2.2728    2.8820   -4.2278 H         1 UNK         0.0000 
     19 H19         1.0177    3.5906   -2.2197 H         1 UNK         0.0000 
     20 H20         3.5465   -3.0702   -1.7237 H         1 UNK         0.0000 
     21 H21         1.2882   -3.3613   -2.5529 H         1 UNK         0.0000 
     22 H22         0.9591   -1.6959   -2.3691 H         1 UNK         0.0000 
     23 C23        -2.9346    3.3512   -1.0311 C.ar      1 UNK         0.0000 
     24 C24        -2.2854    3.3401   -2.2645 C.ar      1 UNK         0.0000 
     25 C25        -1.5892    2.2034   -2.6733 C.ar      1 UNK         0.0000 
     26 C26        -1.5327    1.0799   -1.8488 C.ar      1 UNK         0.0000 
     27 O27        -0.6899    0.1537   -2.1374 O.co2     1 UNK         0.0000 
     28 C28        -2.2457    1.0692   -0.6297 C.ar      1 UNK         0.0000 
     29 O29        -2.2068    0.0241    0.0934 O.co2     1 UNK         0.0000 
     30 C30        -2.9266    2.2278   -0.1885 C.ar      1 UNK         0.0000 
     31 C31        -3.6229    2.3271    1.1625 C.2       1 UNK         0.0000 
     32 O32        -4.7698    2.7733    1.2436 O.2       1 UNK         0.0000 
     33 N33        -2.9780    1.9543    2.2857 N.am      1 UNK         0.0000 
     34 C34        -1.5229    1.9148    2.5131 C.3       1 UNK         0.0000 
     35 C35        -0.9836    0.5092    2.8694 C.2       1 UNK         0.0000 
     36 O36        -0.0750    0.0185    2.1254 O.co2     1 UNK         0.0000 
     37 O37        -1.4276   -0.0088    3.9277 O.co2     1 UNK         0.0000 
     38 H38        -3.4446    4.2527   -0.7168 H         1 UNK         0.0000 
     39 H39        -2.2824    4.2274   -2.8781 H         1 UNK         0.0000 
     40 H40        -1.0237    2.2223   -3.5879 H         1 UNK         0.0000 
     41 H41        -3.5507    1.7090    3.0709 H         1 UNK         0.0000 
     42 H42        -1.2949    2.5522    3.3604 H         1 UNK         0.0000 
     43 H43        -0.9669    2.3669    1.6947 H         1 UNK         0.0000 
@<TRIPOS>BOND
     1    1    6 nc   
     2    1    8 nc   
     3    1   15 nc   
     4    1   27 nc   
     5    1   29 nc   
     6    1   36 nc   
     7    2    3 ar   
     8    2    9 ar   
     9    2   17 1    
    10    3    4 ar   
    11    3   18 1    
    12    4    5 ar   
    13    4   19 1    
    14    5    7 ar   
    15    5    6 1    
    16    7    8 1    
    17    7    9 ar   
    18    9   10 1    
    19   10   12 am   BACKBONE|DICT|INTERRES
    20   10   11 2    
    21   12   20 1    
    22   12   13 1    
    23   13   14 1    
    24   13   21 1    
    25   13   22 1    
    26   14   15 1    
    27   14   16 2    
    28   23   38 1    
    29   23   30 ar   
    30   23   24 ar   
    31   24   25 ar   
    32   24   39 1    
    33   25   26 ar   
    34   25   40 1    
    35   26   28 ar   
    36   26   27 1    
    37   28   30 ar   
    38   28   29 1    
    39   30   31 1    
    40   31   32 2    
    41   31   33 am   BACKBONE|DICT|INTERRES
    42   33   34 1    
    43   33   41 1    
    44   34   35 1    
    45   34   42 1    
    46   34   43 1    
    47   35   37 2    
    48   35   36 1    
@<TRIPOS>SUBSTRUCTURE
     1 UNK         1 GROUP             0       ****    0 ROOT    
