@<TRIPOS>MOLECULE
230_c1
112   122    1
SMALL
USER_CHARGES


@<TRIPOS>ATOM
      1 Fe1        -1.7390    0.1249   -0.8177 Fe        1 UNK         0.0000 
      2 O2         -1.0574  -10.5778    1.4106 O.3       1 UNK         0.0000 
      3 C3         -0.9664   -9.3007    0.7773 C.3       1 UNK         0.0000 
      4 H4         -0.3672   -9.4876   -0.1135 H         1 UNK         0.0000 
      5 C5         -0.2256   -8.2344    1.6402 C.3       1 UNK         0.0000 
      6 H6          0.8300   -8.4409    1.4489 H         1 UNK         0.0000 
      7 C7         -0.3753   -8.3333    3.1753 C.3       1 UNK         0.0000 
      8 O8         -1.7335   -8.2388    3.5957 O.3       1 UNK         0.0000 
      9 O9         -0.4400   -6.8800    1.2192 O.3       1 UNK         0.0000 
     10 C10        -0.8311   -6.6477   -0.1424 C.3       1 UNK         0.0000 
     11 H11        -0.0183   -7.0731   -0.7221 H         1 UNK         0.0000 
     12 C12        -2.1314   -7.4386   -0.5510 C.3       1 UNK         0.0000 
     13 H13        -3.0147   -6.8192   -0.4344 H         1 UNK         0.0000 
     14 O14        -2.0953   -7.7887   -1.9384 O.3       1 UNK         0.0000 
     15 C15        -2.3304   -8.7568    0.2839 C.3       1 UNK         0.0000 
     16 H16        -2.7287   -9.5223   -0.3822 H         1 UNK         0.0000 
     17 O17        -3.2791   -8.7032    1.3493 O.3       1 UNK         0.0000 
     18 C18        -0.7922   -5.1404   -0.4691 C.ar      1 UNK         0.0000 
     19 C19         0.3065   -4.5958   -1.1875 C.ar      1 UNK         0.0000 
     20 C20         0.4640   -3.2052   -1.3424 C.ar      1 UNK         0.0000 
     21 C21        -0.4400   -2.4003   -0.6291 C.ar      1 UNK         0.0000 
     22 O22        -0.3206   -1.1504   -0.5418 O.co2     1 UNK         0.0000 
     23 C23        -1.6372   -2.8905   -0.1332 C.ar      1 UNK         0.0000 
     24 O24        -2.5040   -1.9681    0.0684 O.co2     1 UNK         0.0000 
     25 C25        -1.8117   -4.2746   -0.0164 C.ar      1 UNK         0.0000 
     26 C26         1.4381   -2.5476   -2.3249 C.2       1 UNK         0.0000 
     27 O27         1.2123   -1.4412   -2.7793 O.2       1 UNK         0.0000 
     28 N28         2.5848   -3.1628   -2.6883 N.am      1 UNK         0.0000 
     29 C29         3.7076   -2.5112   -3.4644 C.3       1 UNK         0.0000 
     30 H30         4.3752   -3.3440   -3.6762 H         1 UNK         0.0000 
     31 C31         4.5561   -1.5132   -2.6097 C.3       1 UNK         0.0000 
     32 O32         3.7523   -0.6079   -1.8567 O.3       1 UNK         0.0000 
     33 C33         3.6421    0.7085   -2.1809 C.2       1 UNK         0.0000 
     34 O34         4.4487    1.2979   -2.9190 O.2       1 UNK         0.0000 
     35 C35         2.4128    1.3797   -1.5517 C.3       1 UNK         0.0000 
     36 H36         1.7833    0.5851   -1.1644 H         1 UNK         0.0000 
     37 N37         2.9192    2.1512   -0.4138 N.am      1 UNK         0.0000 
     38 C38         2.3277    2.9113    0.5197 C.2       1 UNK         0.0000 
     39 O39         3.1235    3.4159    1.3198 O.2       1 UNK         0.0000 
     40 C40         0.8468    3.3117    0.5903 C.ar      1 UNK         0.0000 
     41 C41        -0.2772    2.5221    0.2456 C.ar      1 UNK         0.0000 
     42 O42        -0.2978    1.4083   -0.3613 O.co2     1 UNK         0.0000 
     43 C43        -1.5864    2.9377    0.5669 C.ar      1 UNK         0.0000 
     44 O44        -2.4999    2.0923    0.2872 O.co2     1 UNK         0.0000 
     45 C45        -1.8307    4.2013    1.0995 C.ar      1 UNK         0.0000 
     46 C46         0.5540    4.5764    1.1310 C.ar      1 UNK         0.0000 
     47 C47        -0.7489    5.0541    1.3560 C.ar      1 UNK         0.0000 
     48 C48        -0.9001    6.5173    1.7920 C.3       1 UNK         0.0000 
     49 H49        -0.5209    7.0240    0.9074 H         1 UNK         0.0000 
     50 C50        -2.3285    7.0939    2.0086 C.3       1 UNK         0.0000 
     51 H51        -2.9391    6.9028    1.1188 H         1 UNK         0.0000 
     52 O52        -3.0411    6.5468    3.1227 O.3       1 UNK         0.0000 
     53 C53        -2.1764    8.6414    2.1548 C.3       1 UNK         0.0000 
     54 H54        -1.7048    9.0239    1.2550 H         1 UNK         0.0000 
     55 O55        -3.4367    9.2909    2.1897 O.3       1 UNK         0.0000 
     56 O56        -0.0477    6.8613    2.9075 O.3       1 UNK         0.0000 
     57 C57         0.1065    8.2639    3.1951 C.3       1 UNK         0.0000 
     58 H58         0.5662    8.6859    2.3024 H         1 UNK         0.0000 
     59 C59        -1.2550    9.0202    3.3415 C.3       1 UNK         0.0000 
     60 H60        -1.0453   10.0922    3.2762 H         1 UNK         0.0000 
     61 O61        -1.9598    8.8327    4.5589 O.3       1 UNK         0.0000 
     62 C62         1.1560    8.5004    4.3130 C.3       1 UNK         0.0000 
     63 O63         0.6774    8.1116    5.5830 O.3       1 UNK         0.0000 
     64 C64         1.6085    2.2086   -2.5929 C.3       1 UNK         0.0000 
     65 O65         1.3607    1.3537   -3.6897 O.3       1 UNK         0.0000 
     66 C66         0.5747    1.6542   -4.7181 C.2       1 UNK         0.0000 
     67 O67         0.0569    2.7555   -4.9402 O.2       1 UNK         0.0000 
     68 C68         0.6637    0.5582   -5.7837 C.3       1 UNK         0.0000 
     69 H69         0.4645    1.0536   -6.7337 H         1 UNK         0.0000 
     70 C70         2.1126   -0.0406   -5.9446 C.3       1 UNK         0.0000 
     71 O71         2.5718   -0.7901   -4.8109 O.3       1 UNK         0.0000 
     72 C72         3.3683   -1.8856   -4.8458 C.2       1 UNK         0.0000 
     73 O73         3.9108   -2.2924   -5.8814 O.2       1 UNK         0.0000 
     74 N74        -0.3260   -0.5305   -5.6703 N.am      1 UNK         0.0000 
     75 C75        -1.6497   -0.5149   -5.8816 C.2       1 UNK         0.0000 
     76 O76        -1.9734   -1.0235   -6.9571 O.2       1 UNK         0.0000 
     77 C77        -2.7345    0.0054   -4.9332 C.ar      1 UNK         0.0000 
     78 C78        -2.6274    0.1715   -3.5317 C.ar      1 UNK         0.0000 
     79 O79        -1.5602    0.2202   -2.8266 O.co2     1 UNK         0.0000 
     80 C80        -3.7934    0.2201   -2.7407 C.ar      1 UNK         0.0000 
     81 O81        -3.6162    0.1895   -1.4900 O.co2     1 UNK         0.0000 
     82 C82        -5.0638    0.2649   -3.2971 C.ar      1 UNK         0.0000 
     83 C83        -5.1813    0.2192   -4.6881 C.ar      1 UNK         0.0000 
     84 C84        -4.0407    0.0821   -5.4805 C.ar      1 UNK         0.0000 
     85 H85        -1.6378  -11.1404    0.8894 H         1 UNK         0.0000 
     86 H86         0.0523   -9.2699    3.5399 H         1 UNK         0.0000 
     87 H87         0.1976   -7.5340    3.6508 H         1 UNK         0.0000 
     88 H88        -1.7599   -8.2330    4.5551 H         1 UNK         0.0000 
     89 H89        -2.6221   -7.1339   -2.4189 H         1 UNK         0.0000 
     90 H90        -2.7593   -8.5012    2.1534 H         1 UNK         0.0000 
     91 H91         1.0263   -5.2533   -1.6278 H         1 UNK         0.0000 
     92 H92        -2.7264   -4.5937    0.4449 H         1 UNK         0.0000 
     93 H93         2.7609   -4.0100   -2.1812 H         1 UNK         0.0000 
     94 H94         5.1136   -2.0813   -1.8684 H         1 UNK         0.0000 
     95 H95         5.3176   -1.0251   -3.2160 H         1 UNK         0.0000 
     96 H96         3.8974    2.0476   -0.2389 H         1 UNK         0.0000 
     97 H97        -2.8594    4.4665    1.2665 H         1 UNK         0.0000 
     98 H98         1.3709    5.2201    1.3998 H         1 UNK         0.0000 
     99 H99        -3.5672    5.8021    2.7805 H         1 UNK         0.0000 
    100 H100       -3.3697   10.0117    2.8252 H         1 UNK         0.0000 
    101 H101       -2.4441    7.9894    4.4450 H         1 UNK         0.0000 
    102 H102        2.0766    7.9744    4.0606 H         1 UNK         0.0000 
    103 H103        1.4328    9.5496    4.3496 H         1 UNK         0.0000 
    104 H104       -0.2727    8.0011    5.4848 H         1 UNK         0.0000 
    105 H105        0.6792    2.6159   -2.2011 H         1 UNK         0.0000 
    106 H106        2.1760    3.0790   -2.9118 H         1 UNK         0.0000 
    107 H107        2.1488   -0.6643   -6.8385 H         1 UNK         0.0000 
    108 H108        2.8251    0.7645   -6.1131 H         1 UNK         0.0000 
    109 H109       -0.0328   -1.2719   -6.2749 H         1 UNK         0.0000 
    110 H110       -5.9248    0.3152   -2.6425 H         1 UNK         0.0000 
    111 H111       -6.1653    0.2174   -5.1252 H         1 UNK         0.0000 
    112 H112       -4.2064   -0.0530   -6.5405 H         1 UNK         0.0000 
@<TRIPOS>BOND
     1    1   22 nc   
     2    1   24 nc   
     3    1   42 nc   
     4    1   44 nc   
     5    1   79 nc   
     6    1   81 nc   
     7    2    3 1    
     8    2   85 1    
     9    3    4 1    
    10    3    5 1    
    11    3   15 1    
    12    5    6 1    
    13    5    7 1    
    14    5    9 1    
    15    7   86 1    
    16    7    8 1    
    17    7   87 1    
    18    8   88 1    
    19    9   10 1    
    20   10   11 1    
    21   10   12 1    
    22   10   18 1    
    23   12   13 1    
    24   12   15 1    
    25   12   14 1    
    26   14   89 1    
    27   15   16 1    
    28   15   17 1    
    29   17   90 1    
    30   18   25 ar   
    31   18   19 ar   
    32   19   20 ar   
    33   19   91 1    
    34   20   21 ar   
    35   20   26 1    
    36   21   23 ar   
    37   21   22 1    
    38   23   24 1    
    39   23   25 ar   
    40   25   92 1    
    41   26   27 2    
    42   26   28 am   BACKBONE|DICT|INTERRES
    43   28   93 1    
    44   28   29 1    
    45   29   30 1    
    46   29   31 1    
    47   29   72 1    
    48   31   32 1    
    49   31   94 1    
    50   31   95 1    
    51   32   33 1    
    52   33   35 1    
    53   33   34 2    
    54   35   36 1    
    55   35   37 1    
    56   35   64 1    
    57   37   96 1    
    58   37   38 am   BACKBONE|DICT|INTERRES
    59   38   40 1    
    60   38   39 2    
    61   40   46 ar   
    62   40   41 ar   
    63   41   43 ar   
    64   41   42 1    
    65   43   45 ar   
    66   43   44 1    
    67   45   97 1    
    68   45   47 ar   
    69   46   47 ar   
    70   46   98 1    
    71   47   48 1    
    72   48   49 1    
    73   48   50 1    
    74   48   56 1    
    75   50   51 1    
    76   50   53 1    
    77   50   52 1    
    78   52   99 1    
    79   53   54 1    
    80   53   55 1    
    81   53   59 1    
    82   55  100 1    
    83   56   57 1    
    84   57   58 1    
    85   57   59 1    
    86   57   62 1    
    87   59   60 1    
    88   59   61 1    
    89   61  101 1    
    90   62  103 1    
    91   62   63 1    
    92   62  102 1    
    93   63  104 1    
    94   64  105 1    
    95   64   65 1    
    96   64  106 1    
    97   65   66 1    
    98   66   67 2    
    99   66   68 1    
   100   68   69 1    
   101   68   70 1    
   102   68   74 1    
   103   70  108 1    
   104   70   71 1    
   105   70  107 1    
   106   71   72 1    
   107   72   73 2    
   108   74   75 am   BACKBONE|DICT|INTERRES
   109   74  109 1    
   110   75   77 1    
   111   75   76 2    
   112   77   78 ar   
   113   77   84 ar   
   114   78   80 ar   
   115   78   79 1    
   116   80   81 1    
   117   80   82 ar   
   118   82  110 1    
   119   82   83 ar   
   120   83   84 ar   
   121   83  111 1    
   122   84  112 1    
@<TRIPOS>SUBSTRUCTURE
     1 UNK         1 GROUP             0       ****    0 ROOT    
