@<TRIPOS>MOLECULE
051_c1
100   108    1
SMALL
USER_CHARGES


@<TRIPOS>ATOM
      1 O1         -0.9961   -1.0967   -4.8364 O.co2     1 UNK         0.0000 
      2 C2          0.1133   -1.6835   -4.9718 C.ar      1 UNK         0.0000 
      3 C3          0.8219   -1.9591   -3.8115 C.ar      1 UNK         0.0000 
      4 C4          0.7345   -1.8181   -6.2301 C.ar      1 UNK         0.0000 
      5 O5          0.1709   -1.4304   -7.3069 O.co2     1 UNK         0.0000 
      6 C6          2.1036   -2.0640   -6.2855 C.ar      1 UNK         0.0000 
      7 C7          2.8672   -2.0240   -5.1130 C.ar      1 UNK         0.0000 
      8 C8          2.2099   -2.0952   -3.8715 C.ar      1 UNK         0.0000 
      9 C9          4.2901   -1.4839   -5.1645 C.3       1 UNK         0.0000 
     10 C10         4.3859   -0.4061   -4.0474 C.3       1 UNK         0.0000 
     11 H11         3.4555    0.1670   -4.1208 H         1 UNK         0.0000 
     12 C12         4.3081   -1.1275   -2.6764 C.3       1 UNK         0.0000 
     13 N13         3.0489   -2.0766   -2.6036 N.4       1 UNK         0.0000 
     14 C14         3.5458   -3.5289   -2.3942 C.3       1 UNK         0.0000 
     15 C15         2.2637   -1.6746   -1.3208 C.3       1 UNK         0.0000 
     16 N16         5.3756    0.6703   -4.2260 N.am      1 UNK         0.0000 
     17 C17         5.1664    1.8836   -3.6637 C.2       1 UNK         0.0000 
     18 O18         4.6114    1.9917   -2.5708 O.2       1 UNK         0.0000 
     19 C19         5.4619    3.1368   -4.5447 C.3       1 UNK         0.0000 
     20 H20         6.4712    3.0233   -4.9355 H         1 UNK         0.0000 
     21 C21         5.3921    4.4864   -3.7808 C.3       1 UNK         0.0000 
     22 O22         6.4624    4.6268   -2.8694 O.3       1 UNK         0.0000 
     23 N23         4.5508    3.1396   -5.7104 N.am      1 UNK         0.0000 
     24 C24         3.2143    3.3314   -5.6586 C.2       1 UNK         0.0000 
     25 O25         2.6612    4.0029   -4.7951 O.2       1 UNK         0.0000 
     26 C26         2.3977    2.5310   -6.7069 C.3       1 UNK         0.0000 
     27 H27         3.1935    1.9269   -7.1357 H         1 UNK         0.0000 
     28 C28         1.4325    1.4164   -6.1717 C.3       1 UNK         0.0000 
     29 O29         0.0395    1.5866   -6.0555 O.co2     1 UNK         0.0000 
     30 N30         2.0207    3.1856   -7.9535 N.am      1 UNK         0.0000 
     31 C31         0.8504    3.7421   -8.2720 C.2       1 UNK         0.0000 
     32 O32         0.1729    4.5003   -7.5813 O.2       1 UNK         0.0000 
     33 C33         0.3889    3.3542   -9.6807 C.3       1 UNK         0.0000 
     34 H34         0.9371    2.4881  -10.0570 H         1 UNK         0.0000 
     35 C35         0.6661    4.5843  -10.5819 C.3       1 UNK         0.0000 
     36 H36         0.2147    5.4724  -10.1336 H         1 UNK         0.0000 
     37 O37         0.0303    4.3754  -11.8325 O.3       1 UNK         0.0000 
     38 C38         2.1618    4.8728  -10.8260 C.3       1 UNK         0.0000 
     39 N39        -1.0202    2.9943   -9.7533 N.am      1 UNK         0.0000 
     40 C40        -1.7411    2.0333   -9.1453 C.2       1 UNK         0.0000 
     41 O41        -1.3142    1.1318   -8.3685 O.co2     1 UNK         0.0000 
     42 C42        -3.2176    2.1309   -9.5408 C.3       1 UNK         0.0000 
     43 C43        -4.2281    1.5037   -8.5797 C.3       1 UNK         0.0000 
     44 O44        -5.4615    1.5310   -9.2647 O.3       1 UNK         0.0000 
     45 C45        -4.4601    2.2728   -7.2609 C.3       1 UNK         0.0000 
     46 O46        -5.4822    3.7801   -3.3296 O.3       1 UNK         0.0000 
     47 C47        -3.8908    2.5002   -4.7255 C.3       1 UNK         0.0000 
     48 N48        -4.4139    1.2028   -4.3511 N.2       1 UNK         0.0000 
     49 C49        -3.7727    0.3642   -5.0822 C.2       1 UNK         0.0000 
     50 O50        -2.8327    0.9469   -5.9220 O.3       1 UNK         0.0000 
     51 C51        -3.3368    2.2678   -6.1480 C.3       1 UNK         0.0000 
     52 C52        -3.9732   -1.0960   -5.2312 C.ar      1 UNK         0.0000 
     53 C53        -3.4775   -1.8188   -6.3503 C.ar      1 UNK         0.0000 
     54 O54        -2.7568   -1.2988   -7.2587 O.co2     1 UNK         0.0000 
     55 C55        -3.7465   -3.1829   -6.4642 C.ar      1 UNK         0.0000 
     56 C56        -4.5054   -3.8369   -5.4942 C.ar      1 UNK         0.0000 
     57 C57        -4.9874   -3.1369   -4.3947 C.ar      1 UNK         0.0000 
     58 C58        -4.7305   -1.7723   -4.2629 C.ar      1 UNK         0.0000 
     59 H59         0.2918   -1.8268   -2.8763 H         1 UNK         0.0000 
     60 H60         2.5792   -1.9850   -7.2537 H         1 UNK         0.0000 
     61 H61         4.4356   -0.9786   -6.1229 H         1 UNK         0.0000 
     62 H62         5.1072   -2.2073   -5.1295 H         1 UNK         0.0000 
     63 H63         4.2506   -0.4020   -1.8622 H         1 UNK         0.0000 
     64 H64         5.2067   -1.7208   -2.4980 H         1 UNK         0.0000 
     65 H65         4.1473   -3.8140   -3.2586 H         1 UNK         0.0000 
     66 H66         2.6696   -4.1768   -2.3160 H         1 UNK         0.0000 
     67 H67         4.1393   -3.5681   -1.4781 H         1 UNK         0.0000 
     68 H68         1.8660   -0.6696   -1.4724 H         1 UNK         0.0000 
     69 H69         2.9514   -1.6953   -0.4720 H         1 UNK         0.0000 
     70 H70         1.4598   -2.3942   -1.1556 H         1 UNK         0.0000 
     71 H71         5.9834    0.6136   -5.0303 H         1 UNK         0.0000 
     72 H72         4.4566    4.5982   -3.2245 H         1 UNK         0.0000 
     73 H73         5.4300    5.3177   -4.4869 H         1 UNK         0.0000 
     74 H74         6.1455    5.1665   -2.1366 H         1 UNK         0.0000 
     75 H75         4.9191    2.6961   -6.5333 H         1 UNK         0.0000 
     76 H76         1.8581    0.9933   -5.2680 H         1 UNK         0.0000 
     77 H77         1.6000    0.6128   -6.8939 H         1 UNK         0.0000 
     78 H78         2.5141    2.8032   -8.7401 H         1 UNK         0.0000 
     79 H79         0.1883    5.1381  -12.3966 H         1 UNK         0.0000 
     80 H80         2.3067    5.6857  -11.5373 H         1 UNK         0.0000 
     81 H81         2.6776    3.9934  -11.2193 H         1 UNK         0.0000 
     82 H82         2.6780    5.1691   -9.9099 H         1 UNK         0.0000 
     83 H83        -1.4782    3.5822  -10.4359 H         1 UNK         0.0000 
     84 H84        -3.3084    1.6488  -10.5133 H         1 UNK         0.0000 
     85 H85        -3.4890    3.1765   -9.7054 H         1 UNK         0.0000 
     86 H86        -3.3630   -3.7271   -7.3123 H         1 UNK         0.0000 
     87 H87        -4.6995   -4.8928   -5.6080 H         1 UNK         0.0000 
     88 H88        -5.5624   -3.6426   -3.6370 H         1 UNK         0.0000 
     89 H89        -5.1214   -1.2383   -3.4045 H         1 UNK         0.0000 
     90 Fe90       -1.2440   -0.1037   -6.6347 Fe        1 UNK         0.0000 
     91 H91        -3.9985    0.4550   -8.4024 H         1 UNK         0.0000 
     92 H92        -5.8007    2.4270   -9.2847 H         1 UNK         0.0000 
     93 C93        -4.9799    3.6118   -4.6335 C.3       1 UNK         0.0000 
     94 H94        -5.8039    2.9174   -3.0423 H         1 UNK         0.0000 
     95 H95        -3.0724    2.7531   -4.0411 H         1 UNK         0.0000 
     96 H96        -4.5785    4.5644   -4.9837 H         1 UNK         0.0000 
     97 H97        -5.8344    3.3781   -5.2643 H         1 UNK         0.0000 
     98 H98        -5.3611    1.8304   -6.8283 H         1 UNK         0.0000 
     99 H99        -4.7398    3.3050   -7.4793 H         1 UNK         0.0000 
    100 H100       -2.5356    2.9702   -6.3800 H         1 UNK         0.0000 
@<TRIPOS>BOND
     1    1    2 1    
     2    1   90 nc   
     3    2    3 ar   
     4    2    4 ar   
     5    3    8 ar   
     6    3   59 1    
     7    4    5 1    
     8    4    6 ar   
     9    5   90 nc   
    10    6    7 ar   
    11    6   60 1    
    12    7    8 ar   
    13    7    9 1    
    14    8   13 1    
    15    9   10 1    
    16    9   61 1    
    17    9   62 1    
    18   10   11 1    
    19   10   12 1    
    20   10   16 1    
    21   12   13 1    
    22   12   63 1    
    23   12   64 1    
    24   13   14 1    
    25   13   15 1    
    26   14   65 1    
    27   14   66 1    
    28   14   67 1    
    29   15   68 1    
    30   15   69 1    
    31   15   70 1    
    32   16   17 am   BACKBONE|DICT|INTERRES
    33   16   71 1    
    34   17   18 2    
    35   17   19 1    
    36   19   21 1    
    37   19   23 1    
    38   19   20 1    
    39   21   22 1    
    40   21   72 1    
    41   21   73 1    
    42   22   74 1    
    43   23   24 am   BACKBONE|DICT|INTERRES
    44   23   75 1    
    45   24   25 2    
    46   24   26 1    
    47   26   27 1    
    48   26   28 1    
    49   26   30 1    
    50   28   29 1    
    51   28   76 1    
    52   28   77 1    
    53   29   90 nc   
    54   30   31 am   BACKBONE|DICT|INTERRES
    55   30   78 1    
    56   31   32 2    
    57   31   33 1    
    58   33   39 1    
    59   33   34 1    
    60   33   35 1    
    61   35   37 1    
    62   35   38 1    
    63   35   36 1    
    64   37   79 1    
    65   38   80 1    
    66   38   81 1    
    67   38   82 1    
    68   39   40 am   BACKBONE|DICT|INTERRES
    69   39   83 1    
    70   40   41 2    
    71   40   42 1    
    72   41   90 nc   
    73   42   84 1    
    74   42   85 1    
    75   42   43 1    
    76   43   44 1    
    77   43   45 1    
    78   43   91 1    
    79   44   92 1    
    80   45   51 1    
    81   45   98 1    
    82   45   99 1    
    83   46   94 1    
    84   46   93 1    
    85   47   48 1    
    86   47   51 1    
    87   47   95 1    
    88   47   93 1    
    89   48   49 2    
    90   49   50 1    
    91   49   52 1    
    92   50   51 1    
    93   50   90 nc   
    94   51  100 1    
    95   52   53 ar   
    96   52   58 ar   
    97   53   54 1    
    98   53   55 ar   
    99   54   90 nc   
   100   55   56 ar   
   101   55   86 1    
   102   56   57 ar   
   103   56   87 1    
   104   57   58 ar   
   105   57   88 1    
   106   58   89 1    
   107   93   96 1    
   108   93   97 1    
@<TRIPOS>SUBSTRUCTURE
     1 UNK         1 GROUP             0       ****    0 ROOT    
