@<TRIPOS>MOLECULE
163_c1
130   137    1
SMALL
USER_CHARGES


@<TRIPOS>ATOM
      1 C1         -8.1577    4.4093    5.2344 C.ar      1 UNK         0.0000 
      2 C2         -6.9717    3.9706    5.8097 C.ar      1 UNK         0.0000 
      3 C3         -5.7747    4.1970    5.1526 C.ar      1 UNK         0.0000 
      4 C4         -5.7451    4.9711    3.9954 C.ar      1 UNK         0.0000 
      5 O5         -4.6499    5.0425    3.3832 O.co2     1 UNK         0.0000 
      6 C6         -6.9156    5.5937    3.5163 C.ar      1 UNK         0.0000 
      7 O7         -6.7983    6.5329    2.6456 O.co2     1 UNK         0.0000 
      8 C8         -8.1596    5.1544    4.0293 C.ar      1 UNK         0.0000 
      9 C9         -9.4455    5.2318    3.2115 C.2       1 UNK         0.0000 
     10 O10        -9.4688    5.2532    1.9854 O.2       1 UNK         0.0000 
     11 N11       -10.5771    4.9693    3.8709 N.am      1 UNK         0.0000 
     12 C12       -11.8012    4.3968    3.2855 C.3       1 UNK         0.0000 
     13 H13       -12.4342    4.1927    4.1514 H         1 UNK         0.0000 
     14 C14       -11.4450    3.0241    2.5997 C.3       1 UNK         0.0000 
     15 C15       -12.5904    2.0183    2.3586 C.3       1 UNK         0.0000 
     16 C16       -13.6161    2.4237    1.2718 C.3       1 UNK         0.0000 
     17 N17       -14.4901    1.2917    0.9088 N.pl3     1 UNK         0.0000 
     18 C18       -15.4220    0.7202    1.6911 C.cat     1 UNK         0.0000 
     19 N19       -16.0979   -0.3463    1.2520 N.pl3     1 UNK         0.0000 
     20 N20       -15.6691    1.2059    2.9027 N.pl3     1 UNK         0.0000 
     21 H21       -15.1948    2.0462    3.2103 H         1 UNK         0.0000 
     22 H22       -16.3556    0.8185    3.5361 H         1 UNK         0.0000 
     23 C23       -12.6244    5.3188    2.3446 C.2       1 UNK         0.0000 
     24 O24       -13.8143    5.4897    2.6121 O.2       1 UNK         0.0000 
     25 N25       -12.0679    5.7958    1.2234 N.am      1 UNK         0.0000 
     26 C26       -12.8365    6.4440    0.1587 C.3       1 UNK         0.0000 
     27 C27       -12.1344    6.1475   -1.1677 C.2       1 UNK         0.0000 
     28 O28       -12.5651    5.2648   -1.9086 O.2       1 UNK         0.0000 
     29 N29       -11.0279    6.8445   -1.4322 N.am      1 UNK         0.0000 
     30 C30       -10.0242    6.4722   -2.4258 C.3       1 UNK         0.0000 
     31 C31        -8.8490    5.9534   -1.5858 C.2       1 UNK         0.0000 
     32 O32        -8.8062    6.2840   -0.4142 O.2       1 UNK         0.0000 
     33 N33        -7.9087    5.1981   -2.1706 N.am      1 UNK         0.0000 
     34 C34        -6.7111    4.6601   -1.4880 C.3       1 UNK         0.0000 
     35 H35        -7.1582    3.9264   -0.8195 H         1 UNK         0.0000 
     36 C36        -6.0007    5.6030   -0.4974 C.2       1 UNK         0.0000 
     37 O37        -5.7385    5.0985    0.6070 O.co2     1 UNK         0.0000 
     38 C38        -5.7163    3.8202   -2.3515 C.3       1 UNK         0.0000 
     39 O39        -4.3351    4.1923   -2.2958 O.3       1 UNK         0.0000 
     40 C40        -3.7130    5.2337   -2.9289 C.2       1 UNK         0.0000 
     41 O41        -2.5907    5.5920   -2.5913 O.2       1 UNK         0.0000 
     42 C42        -4.2773    5.7406   -4.2606 C.3       1 UNK         0.0000 
     43 H43        -3.7060    6.6396   -4.4952 H         1 UNK         0.0000 
     44 C44        -5.7662    6.1949   -4.3215 C.3       1 UNK         0.0000 
     45 C45        -6.2168    7.3775   -3.4128 C.3       1 UNK         0.0000 
     46 C46        -5.5710    7.6886   -2.0201 C.3       1 UNK         0.0000 
     47 N47        -5.7005    6.9119   -0.7483 N.am      1 UNK         0.0000 
     48 O48        -5.2483    7.6623    0.2638 O.co2     1 UNK         0.0000 
     49 N49        -3.8125    4.7348   -5.2484 N.am      1 UNK         0.0000 
     50 C50        -4.3929    3.5760   -5.5974 C.2       1 UNK         0.0000 
     51 O51        -5.6076    3.3982   -5.6413 O.2       1 UNK         0.0000 
     52 C52        -3.4469    2.3786   -5.7333 C.3       1 UNK         0.0000 
     53 N53        -2.9770    2.1645   -4.3603 N.am      1 UNK         0.0000 
     54 C54        -1.7149    2.1560   -3.9193 C.2       1 UNK         0.0000 
     55 O55        -0.7448    2.0330   -4.6667 O.2       1 UNK         0.0000 
     56 C56        -1.5497    2.1955   -2.3943 C.3       1 UNK         0.0000 
     57 N57        -0.2691    2.6598   -1.8663 N.am      1 UNK         0.0000 
     58 C58         0.3569    3.8167   -2.1403 C.2       1 UNK         0.0000 
     59 O59         0.2714    4.4058   -3.2188 O.2       1 UNK         0.0000 
     60 C60         1.3045    4.3238   -1.0035 C.3       1 UNK         0.0000 
     61 H61         1.6841    3.4151   -0.5251 H         1 UNK         0.0000 
     62 C62         2.5675    5.1590   -1.4073 C.3       1 UNK         0.0000 
     63 C63         3.2709    5.0014   -2.7830 C.3       1 UNK         0.0000 
     64 C64         3.9344    3.6340   -3.0748 C.3       1 UNK         0.0000 
     65 N65         2.9972    2.6338   -3.6148 N.pl3     1 UNK         0.0000 
     66 C66         2.7801    2.3410   -4.9037 C.cat     1 UNK         0.0000 
     67 N67         3.5274    2.8849   -5.8672 N.pl3     1 UNK         0.0000 
     68 N68         1.8108    1.4983   -5.2290 N.pl3     1 UNK         0.0000 
     69 H69         0.9446    1.5137   -4.6722 H         1 UNK         0.0000 
     70 H70         1.6493    1.1794   -6.1705 H         1 UNK         0.0000 
     71 N71         0.6002    5.0893    0.0360 N.am      1 UNK         0.0000 
     72 C72        -0.4198    4.6954    0.8143 C.2       1 UNK         0.0000 
     73 O73        -0.8324    3.5267    0.8008 O.2       1 UNK         0.0000 
     74 C74        -0.8793    5.7816    1.7854 C.ar      1 UNK         0.0000 
     75 C75        -2.2013    6.2975    1.8039 C.ar      1 UNK         0.0000 
     76 O76        -3.1038    5.8474    1.0255 O.co2     1 UNK         0.0000 
     77 C77        -2.5513    7.3128    2.7351 C.ar      1 UNK         0.0000 
     78 O78        -3.7445    7.7565    2.8661 O.co2     1 UNK         0.0000 
     79 C79        -1.5925    7.8159    3.6114 C.ar      1 UNK         0.0000 
     80 C80        -0.2957    7.3170    3.5904 C.ar      1 UNK         0.0000 
     81 C81         0.0563    6.3133    2.6934 C.ar      1 UNK         0.0000 
     82 H82        -9.0705    4.1011    5.7165 H         1 UNK         0.0000 
     83 H83        -6.9602    3.3851    6.7160 H         1 UNK         0.0000 
     84 H84        -4.8404    3.7970    5.5237 H         1 UNK         0.0000 
     85 H85       -10.5005    5.0848    4.8655 H         1 UNK         0.0000 
     86 H86       -10.7152    2.5078    3.2301 H         1 UNK         0.0000 
     87 H87       -10.9179    3.1889    1.6551 H         1 UNK         0.0000 
     88 H88       -13.0929    1.8990    3.3198 H         1 UNK         0.0000 
     89 H89       -12.1784    1.0366    2.1127 H         1 UNK         0.0000 
     90 H90       -13.1362    2.8653    0.3898 H         1 UNK         0.0000 
     91 H91       -14.3011    3.1799    1.6603 H         1 UNK         0.0000 
     92 H92       -14.3177    0.9677   -0.0365 H         1 UNK         0.0000 
     93 H93       -15.9507   -0.7400    0.3321 H         1 UNK         0.0000 
     94 H94       -16.8012   -0.8045    1.8144 H         1 UNK         0.0000 
     95 H95       -11.0503    5.6941    1.1166 H         1 UNK         0.0000 
     96 H96       -12.9032    7.5137    0.3518 H         1 UNK         0.0000 
     97 H97       -13.8553    6.0529    0.0885 H         1 UNK         0.0000 
     98 H98       -10.5912    7.3047   -0.6389 H         1 UNK         0.0000 
     99 H99        -9.7116    7.3718   -2.9572 H         1 UNK         0.0000 
    100 H100      -10.3869    5.7425   -3.1521 H         1 UNK         0.0000 
    101 H101       -7.9830    5.0195   -3.1515 H         1 UNK         0.0000 
    102 H102       -6.0680    3.6532   -3.3578 H         1 UNK         0.0000 
    103 H103       -5.7109    2.8148   -1.9309 H         1 UNK         0.0000 
    104 H104       -6.4679    5.3763   -4.2519 H         1 UNK         0.0000 
    105 H105       -5.9227    6.5206   -5.3533 H         1 UNK         0.0000 
    106 H106       -7.2979    7.4404   -3.3488 H         1 UNK         0.0000 
    107 H107       -5.9840    8.2636   -3.9981 H         1 UNK         0.0000 
    108 H108       -5.9464    8.6874   -1.7830 H         1 UNK         0.0000 
    109 H109       -4.4991    7.8181   -2.1818 H         1 UNK         0.0000 
    110 H110       -2.8038    4.7534   -5.3230 H         1 UNK         0.0000 
    111 H111       -2.6431    2.5772   -6.4493 H         1 UNK         0.0000 
    112 H112       -4.0110    1.5083   -6.0813 H         1 UNK         0.0000 
    113 H113       -3.6940    2.2367   -3.6491 H         1 UNK         0.0000 
    114 H114       -1.7674    1.2054   -2.0021 H         1 UNK         0.0000 
    115 H115       -2.2962    2.8404   -1.9395 H         1 UNK         0.0000 
    116 H116       -0.1523    2.3893   -0.8957 H         1 UNK         0.0000 
    117 H117        3.3140    5.0618   -0.6142 H         1 UNK         0.0000 
    118 H118        2.2793    6.2117   -1.3730 H         1 UNK         0.0000 
    119 H119        4.0214    5.7864   -2.9007 H         1 UNK         0.0000 
    120 H120        2.5199    5.2186   -3.5472 H         1 UNK         0.0000 
    121 H121        4.1928    3.2006   -2.1070 H         1 UNK         0.0000 
    122 H122        4.8805    3.7160   -3.6177 H         1 UNK         0.0000 
    123 H123        2.4120    2.1866   -2.9206 H         1 UNK         0.0000 
    124 H124        4.1981    3.5996   -5.6345 H         1 UNK         0.0000 
    125 H125        3.3469    2.7306   -6.8491 H         1 UNK         0.0000 
    126 H126        0.7945    6.0786    0.1177 H         1 UNK         0.0000 
    127 H127       -1.8725    8.5747    4.3336 H         1 UNK         0.0000 
    128 H128        0.4232    7.6841    4.3004 H         1 UNK         0.0000 
    129 H129        1.0654    5.9205    2.7142 H         1 UNK         0.0000 
    130 Fe130      -4.8744    6.3693    1.8565 Fe        1 UNK         0.0000 
@<TRIPOS>BOND
     1    1    2 ar   
     2    1    8 ar   
     3    1   82 1    
     4    2    3 ar   
     5    2   83 1    
     6    3    4 ar   
     7    3   84 1    
     8    4    5 1    
     9    4    6 ar   
    10    5  130 nc   
    11    6    7 1    
    12    6    8 ar   
    13    7  130 nc   
    14    8    9 1    
    15    9   10 2    
    16    9   11 am   BACKBONE|DICT|INTERRES
    17   11   85 1    
    18   11   12 1    
    19   12   14 1    
    20   12   23 1    
    21   12   13 1    
    22   14   15 1    
    23   14   86 1    
    24   14   87 1    
    25   15   16 1    
    26   15   88 1    
    27   15   89 1    
    28   16   17 1    
    29   16   90 1    
    30   16   91 1    
    31   17   18 ar   
    32   17   92 1    
    33   18   19 ar   
    34   18   20 ar   
    35   19   93 1    
    36   19   94 1    
    37   20   21 1    
    38   20   22 1    
    39   23   24 2    
    40   23   25 am   BACKBONE|DICT|INTERRES
    41   25   26 1    
    42   25   95 1    
    43   26   27 1    
    44   26   96 1    
    45   26   97 1    
    46   27   28 2    
    47   27   29 am   BACKBONE|DICT|INTERRES
    48   29   30 1    
    49   29   98 1    
    50   30   31 1    
    51   30   99 1    
    52   30  100 1    
    53   31   32 2    
    54   31   33 am   BACKBONE|DICT|INTERRES
    55   33   34 1    
    56   33  101 1    
    57   34   35 1    
    58   34   36 1    
    59   34   38 1    
    60   36   37 2    
    61   36   47 am   BACKBONE|DICT|INTERRES
    62   37  130 nc   
    63   38   39 1    
    64   38  102 1    
    65   38  103 1    
    66   39   40 1    
    67   40   41 2    
    68   40   42 1    
    69   42   44 1    
    70   42   49 1    
    71   42   43 1    
    72   44   45 1    
    73   44  104 1    
    74   44  105 1    
    75   45   46 1    
    76   45  106 1    
    77   45  107 1    
    78   46   47 1    
    79   46  108 1    
    80   46  109 1    
    81   47   48 1    
    82   48  130 nc   
    83   49   50 am   BACKBONE|DICT|INTERRES
    84   49  110 1    
    85   50   51 2    
    86   50   52 1    
    87   52   53 1    
    88   52  111 1    
    89   52  112 1    
    90   53   54 am   BACKBONE|DICT|INTERRES
    91   53  113 1    
    92   54   55 2    
    93   54   56 1    
    94   56   57 1    
    95   56  114 1    
    96   56  115 1    
    97   57   58 am   BACKBONE|DICT|INTERRES
    98   57  116 1    
    99   58   59 2    
   100   58   60 1    
   101   60   61 1    
   102   60   62 1    
   103   60   71 1    
   104   62   63 1    
   105   62  117 1    
   106   62  118 1    
   107   63   64 1    
   108   63  119 1    
   109   63  120 1    
   110   64   65 1    
   111   64  121 1    
   112   64  122 1    
   113   65   66 ar   
   114   65  123 1    
   115   66   67 ar   
   116   66   68 ar   
   117   67  124 1    
   118   67  125 1    
   119   68   69 1    
   120   68   70 1    
   121   71   72 am   BACKBONE|DICT|INTERRES
   122   71  126 1    
   123   72   73 2    
   124   72   74 1    
   125   74   75 ar   
   126   74   81 ar   
   127   75   76 1    
   128   75   77 ar   
   129   76  130 nc   
   130   77   78 1    
   131   77   79 ar   
   132   78  130 nc   
   133   79   80 ar   
   134   79  127 1    
   135   80   81 ar   
   136   80  128 1    
   137   81  129 1    
@<TRIPOS>SUBSTRUCTURE
     1 UNK         1 GROUP             0       ****    0 ROOT    
