@<TRIPOS>MOLECULE
058_c1
132   137    1
SMALL
USER_CHARGES


@<TRIPOS>ATOM
      1 Fe1        -1.0513    3.4730   -0.1211 Fe        1 UNK         0.0000 
      2 O2          2.9701    7.1190    7.1671 O.3       1 UNK         0.0000 
      3 C3          1.9546    7.0531    6.1854 C.3       1 UNK         0.0000 
      4 C4          2.1987    5.8240    5.2843 C.3       1 UNK         0.0000 
      5 C5          1.1373    5.4969    4.2257 C.2       1 UNK         0.0000 
      6 C6          0.0809    6.5758    3.9604 C.3       1 UNK         0.0000 
      7 C7          1.1871    4.2848    3.6124 C.2       1 UNK         0.0000 
      8 C8          0.2895    3.7956    2.5888 C.2       1 UNK         0.0000 
      9 O9         -0.2154    4.4752    1.6721 O.co2     1 UNK         0.0000 
     10 N10        -0.0542    2.4822    2.5779 N.am      1 UNK         0.0000 
     11 O11        -0.9398    2.1671    1.6763 O.co2     1 UNK         0.0000 
     12 C12         0.5051    1.3093    3.2934 C.3       1 UNK         0.0000 
     13 C13         0.8426    0.0618    2.4038 C.3       1 UNK         0.0000 
     14 C14        -0.2999   -0.6802    1.6288 C.3       1 UNK         0.0000 
     15 C15        -1.3396   -1.4751    2.4673 C.3       1 UNK         0.0000 
     16 H16        -1.2723   -1.0449    3.4677 H         1 UNK         0.0000 
     17 C17        -1.0613   -2.9743    2.7039 C.2       1 UNK         0.0000 
     18 O18        -1.8408   -3.5664    3.4447 O.2       1 UNK         0.0000 
     19 N19         0.0002   -3.5433    2.1049 N.am      1 UNK         0.0000 
     20 C20         0.4925   -4.9286    2.1470 C.3       1 UNK         0.0000 
     21 H21         1.4696   -4.8850    2.6274 H         1 UNK         0.0000 
     22 C22        -0.3824   -5.9121    2.9829 C.3       1 UNK         0.0000 
     23 O23         0.0740   -7.2574    2.9469 O.3       1 UNK         0.0000 
     24 C24         0.7859   -5.3174    0.6851 C.2       1 UNK         0.0000 
     25 O25         1.6128   -4.6384    0.0833 O.2       1 UNK         0.0000 
     26 N26         0.1103   -6.3530    0.1775 N.am      1 UNK         0.0000 
     27 C27         0.1353   -6.9691   -1.1591 C.3       1 UNK         0.0000 
     28 H28        -0.9103   -6.9542   -1.4752 H         1 UNK         0.0000 
     29 C29         0.4945   -8.4675   -1.0049 C.3       1 UNK         0.0000 
     30 O30         1.6478   -8.6602   -0.2019 O.3       1 UNK         0.0000 
     31 C31         0.8977   -6.2594   -2.3099 C.2       1 UNK         0.0000 
     32 O32         2.1053   -6.4313   -2.4638 O.2       1 UNK         0.0000 
     33 N33         0.1262   -5.5842   -3.1759 N.am      1 UNK         0.0000 
     34 C34         0.6514   -4.7888   -4.2893 C.3       1 UNK         0.0000 
     35 C35         0.5294   -3.3354   -3.8451 C.2       1 UNK         0.0000 
     36 O36         1.5523   -2.7299   -3.5589 O.2       1 UNK         0.0000 
     37 N37        -0.7250   -2.8460   -3.7316 N.am      1 UNK         0.0000 
     38 C38        -1.2121   -1.7073   -2.9229 C.3       1 UNK         0.0000 
     39 H39        -2.2866   -1.7088   -3.1146 H         1 UNK         0.0000 
     40 C40        -0.7042   -0.2937   -3.3587 C.3       1 UNK         0.0000 
     41 C41         0.7872    0.0966   -3.1356 C.3       1 UNK         0.0000 
     42 C42         1.1941    1.5860   -3.3837 C.3       1 UNK         0.0000 
     43 N43         0.6623    2.6239   -2.4793 N.am      1 UNK         0.0000 
     44 O44        -0.1300    2.1918   -1.5310 O.co2     1 UNK         0.0000 
     45 C45         0.9082    3.9602   -2.4554 C.2       1 UNK         0.0000 
     46 O46         0.2585    4.5565   -1.5826 O.co2     1 UNK         0.0000 
     47 C47         1.9441    4.5262   -3.2950 C.2       1 UNK         0.0000 
     48 C48         2.2472    5.8446   -3.4713 C.2       1 UNK         0.0000 
     49 C49         3.4528    6.2185   -4.3185 C.3       1 UNK         0.0000 
     50 C50         1.5110    7.0602   -2.8700 C.3       1 UNK         0.0000 
     51 C51         0.7097    7.9107   -3.8807 C.3       1 UNK         0.0000 
     52 O52         1.5631    8.7254   -4.6705 O.3       1 UNK         0.0000 
     53 C53        -1.0671   -2.0721   -1.4212 C.2       1 UNK         0.0000 
     54 O54        -0.0321   -2.5912   -1.0379 O.2       1 UNK         0.0000 
     55 N55        -2.0277   -1.9588   -0.4975 N.am      1 UNK         0.0000 
     56 C56        -3.3330   -1.3282   -0.3524 C.3       1 UNK         0.0000 
     57 H57        -4.0659   -1.9883   -0.8155 H         1 UNK         0.0000 
     58 C58        -3.6707   -1.3126    1.1611 C.2       1 UNK         0.0000 
     59 O59        -4.8648   -1.3429    1.4380 O.2       1 UNK         0.0000 
     60 N60        -2.7829   -1.2892    2.1853 N.am      1 UNK         0.0000 
     61 C61        -3.4890    0.0742   -1.0120 C.3       1 UNK         0.0000 
     62 C62        -4.6946    1.0195   -0.5731 C.3       1 UNK         0.0000 
     63 C63        -4.7276    2.4903   -1.1588 C.3       1 UNK         0.0000 
     64 N64        -3.6373    3.3780   -0.6843 N.am      1 UNK         0.0000 
     65 O65        -2.5245    2.7647   -0.4597 O.co2     1 UNK         0.0000 
     66 C66        -3.5043    4.7229   -0.5426 C.2       1 UNK         0.0000 
     67 O67        -2.2980    5.0206   -0.3589 O.co2     1 UNK         0.0000 
     68 C68        -4.6610    5.5138   -0.2005 C.2       1 UNK         0.0000 
     69 C69        -5.3537    6.3561   -1.0052 C.2       1 UNK         0.0000 
     70 C70        -6.5798    7.0435   -0.4000 C.3       1 UNK         0.0000 
     71 C71        -4.9775    6.6408   -2.4666 C.3       1 UNK         0.0000 
     72 C72        -5.7616    7.7456   -3.2033 C.3       1 UNK         0.0000 
     73 O73        -5.2221    7.9392   -4.4966 O.3       1 UNK         0.0000 
     74 H74         2.7924    7.8352    7.7852 H         1 UNK         0.0000 
     75 H75         1.9534    7.9746    5.6005 H         1 UNK         0.0000 
     76 H76         0.9840    6.9763    6.6772 H         1 UNK         0.0000 
     77 H77         3.1659    5.9294    4.7852 H         1 UNK         0.0000 
     78 H78         2.3033    4.9474    5.9297 H         1 UNK         0.0000 
     79 H79        -0.6700    6.3031    3.2217 H         1 UNK         0.0000 
     80 H80         0.5461    7.5007    3.6098 H         1 UNK         0.0000 
     81 H81        -0.4823    6.7927    4.8711 H         1 UNK         0.0000 
     82 H82         1.9611    3.5824    3.8772 H         1 UNK         0.0000 
     83 H83         1.3904    1.5530    3.8854 H         1 UNK         0.0000 
     84 H84        -0.2337    1.0190    4.0385 H         1 UNK         0.0000 
     85 H85         1.5672    0.3907    1.6600 H         1 UNK         0.0000 
     86 H86         1.3834   -0.6737    3.0007 H         1 UNK         0.0000 
     87 H87        -0.8370   -0.0347    0.9432 H         1 UNK         0.0000 
     88 H88         0.2415   -1.3334    0.9516 H         1 UNK         0.0000 
     89 H89         0.5296   -3.0053    1.4230 H         1 UNK         0.0000 
     90 H90        -0.4066   -5.5767    4.0237 H         1 UNK         0.0000 
     91 H91        -1.4150   -5.9006    2.6347 H         1 UNK         0.0000 
     92 H92        -0.2132   -7.7128    3.7422 H         1 UNK         0.0000 
     93 H93        -0.3271   -6.9219    0.8881 H         1 UNK         0.0000 
     94 H94         0.6253   -8.9335   -1.9864 H         1 UNK         0.0000 
     95 H95        -0.3268   -9.0062   -0.5307 H         1 UNK         0.0000 
     96 H96         2.2096   -9.3330   -0.5924 H         1 UNK         0.0000 
     97 H97        -0.8439   -5.4793   -2.9423 H         1 UNK         0.0000 
     98 H98         0.0880   -4.9619   -5.2033 H         1 UNK         0.0000 
     99 H99         1.6969   -5.0155   -4.5019 H         1 UNK         0.0000 
    100 H100       -1.4653   -3.4504   -4.0430 H         1 UNK         0.0000 
    101 H101       -1.3335    0.4279   -2.8440 H         1 UNK         0.0000 
    102 H102       -0.9403   -0.1484   -4.4132 H         1 UNK         0.0000 
    103 H103        1.3931   -0.4468   -3.8580 H         1 UNK         0.0000 
    104 H104        1.1272   -0.2305   -2.1522 H         1 UNK         0.0000 
    105 H105        0.9038    1.8496   -4.3994 H         1 UNK         0.0000 
    106 H106        2.2807    1.6389   -3.3505 H         1 UNK         0.0000 
    107 H107        4.1241    6.8701   -3.7549 H         1 UNK         0.0000 
    108 H108        3.1451    6.7508   -5.2212 H         1 UNK         0.0000 
    109 H109        4.0335    5.3501   -4.6377 H         1 UNK         0.0000 
    110 H110        0.8092    6.7795   -2.0871 H         1 UNK         0.0000 
    111 H111        2.2433    7.6872   -2.3544 H         1 UNK         0.0000 
    112 H112        0.0969    7.2589   -4.5072 H         1 UNK         0.0000 
    113 H113        0.0113    8.5582   -3.3457 H         1 UNK         0.0000 
    114 H114        1.0567    9.1534   -5.3667 H         1 UNK         0.0000 
    115 H115       -1.7395   -2.3271    0.3958 H         1 UNK         0.0000 
    116 H116       -3.2772   -1.2721    3.0607 H         1 UNK         0.0000 
    117 H117       -2.5108    0.4998   -0.8262 H         1 UNK         0.0000 
    118 H118       -3.5353   -0.0414   -2.0950 H         1 UNK         0.0000 
    119 H119       -5.6238    0.5146   -0.8575 H         1 UNK         0.0000 
    120 H120       -4.7387    1.1250    0.5124 H         1 UNK         0.0000 
    121 H121       -4.6173    2.4138   -2.2518 H         1 UNK         0.0000 
    122 H122       -5.7134    2.9479   -1.0063 H         1 UNK         0.0000 
    123 H123       -4.9807    5.3390    0.8175 H         1 UNK         0.0000 
    124 H124       -6.2892    7.5757    0.5068 H         1 UNK         0.0000 
    125 H125       -7.3340    6.3011   -0.1282 H         1 UNK         0.0000 
    126 H126       -7.0687    7.7685   -1.0460 H         1 UNK         0.0000 
    127 H127       -3.9195    6.9037   -2.4893 H         1 UNK         0.0000 
    128 H128       -5.0586    5.7101   -3.0332 H         1 UNK         0.0000 
    129 H129       -5.7136    8.6870   -2.6488 H         1 UNK         0.0000 
    130 H130       -6.8171    7.4718   -3.2877 H         1 UNK         0.0000 
    131 H131       -5.7571    8.5860   -4.9665 H         1 UNK         0.0000 
    132 H132        2.5356    3.7810   -3.7979 H         1 UNK         0.0000 
@<TRIPOS>BOND
     1    1    9 nc   
     2    1   11 nc   
     3    1   44 nc   
     4    1   46 nc   
     5    1   65 nc   
     6    1   67 nc   
     7    2   74 1    
     8    2    3 1    
     9    3   76 1    
    10    3    4 1    
    11    3   75 1    
    12    4   78 1    
    13    4    5 1    
    14    4   77 1    
    15    5    6 1    
    16    5    7 2    
    17    6   81 1    
    18    6   79 1    
    19    6   80 1    
    20    7   82 1    
    21    7    8 1    
    22    8    9 2    
    23    8   10 am   BACKBONE|DICT|INTERRES
    24   10   12 1    
    25   10   11 1    
    26   12   83 1    
    27   12   84 1    
    28   12   13 1    
    29   13   86 1    
    30   13   14 1    
    31   13   85 1    
    32   14   15 1    
    33   14   87 1    
    34   14   88 1    
    35   15   17 1    
    36   15   16 1    
    37   15   60 1    
    38   17   18 2    
    39   17   19 am   BACKBONE|DICT|INTERRES
    40   19   20 1    
    41   19   89 1    
    42   20   21 1    
    43   20   22 1    
    44   20   24 1    
    45   22   23 1    
    46   22   90 1    
    47   22   91 1    
    48   23   92 1    
    49   24   25 2    
    50   24   26 am   BACKBONE|DICT|INTERRES
    51   26   93 1    
    52   26   27 1    
    53   27   28 1    
    54   27   29 1    
    55   27   31 1    
    56   29   30 1    
    57   29   95 1    
    58   29   94 1    
    59   30   96 1    
    60   31   32 2    
    61   31   33 am   BACKBONE|DICT|INTERRES
    62   33   34 1    
    63   33   97 1    
    64   34   99 1    
    65   34   35 1    
    66   34   98 1    
    67   35   37 am   BACKBONE|DICT|INTERRES
    68   35   36 2    
    69   37   38 1    
    70   37  100 1    
    71   38   39 1    
    72   38   53 1    
    73   38   40 1    
    74   40   41 1    
    75   40  101 1    
    76   40  102 1    
    77   41  104 1    
    78   41   42 1    
    79   41  103 1    
    80   42  106 1    
    81   42   43 1    
    82   42  105 1    
    83   43   45 am   BACKBONE|DICT|INTERRES
    84   43   44 1    
    85   45   46 2    
    86   45   47 1    
    87   47   48 2    
    88   47  132 1    
    89   48   50 1    
    90   48   49 1    
    91   49  107 1    
    92   49  108 1    
    93   49  109 1    
    94   50  110 1    
    95   50  111 1    
    96   50   51 1    
    97   51  113 1    
    98   51   52 1    
    99   51  112 1    
   100   52  114 1    
   101   53   54 2    
   102   53   55 am   BACKBONE|DICT|INTERRES
   103   55   56 1    
   104   55  115 1    
   105   56   57 1    
   106   56   58 1    
   107   56   61 1    
   108   58   59 2    
   109   58   60 am   BACKBONE|DICT|INTERRES
   110   60  116 1    
   111   61  117 1    
   112   61   62 1    
   113   61  118 1    
   114   62  120 1    
   115   62   63 1    
   116   62  119 1    
   117   63   64 1    
   118   63  122 1    
   119   63  121 1    
   120   64   66 am   BACKBONE|DICT|INTERRES
   121   64   65 1    
   122   66   68 1    
   123   66   67 2    
   124   68  123 1    
   125   68   69 2    
   126   69   70 1    
   127   69   71 1    
   128   70  125 1    
   129   70  124 1    
   130   70  126 1    
   131   71  127 1    
   132   71   72 1    
   133   71  128 1    
   134   72  129 1    
   135   72   73 1    
   136   72  130 1    
   137   73  131 1    
@<TRIPOS>SUBSTRUCTURE
     1 UNK         1 GROUP             0       ****    0 ROOT    
