@<TRIPOS>MOLECULE
190_A_c1
101   107    1
SMALL
USER_CHARGES


@<TRIPOS>ATOM
      1 Fe1         0.0930    0.2368   -1.4570 Fe        1 UNK         0.0000 
      2 C2         -3.5985   -6.5489    0.5289 C.ar      1 UNK         0.0000 
      3 C3         -4.6456   -7.3042    1.0607 C.ar      1 UNK         0.0000 
      4 C4         -5.7234   -6.6634    1.6631 C.ar      1 UNK         0.0000 
      5 C5         -5.7638   -5.2774    1.7520 C.ar      1 UNK         0.0000 
      6 C6         -4.7208   -4.5250    1.2246 C.ar      1 UNK         0.0000 
      7 C7         -3.6308   -5.1535    0.5901 C.ar      1 UNK         0.0000 
      8 C8         -2.5380   -4.3873   -0.0524 C.2       1 UNK         0.0000 
      9 C9         -2.4402   -3.0368    0.0117 C.2       1 UNK         0.0000 
     10 C10        -1.4594   -2.1925   -0.6151 C.2       1 UNK         0.0000 
     11 O11        -1.6742   -0.9847   -0.7506 O.co2     1 UNK         0.0000 
     12 N12        -0.2574   -2.5945   -1.1074 N.am      1 UNK         0.0000 
     13 O13         0.4233   -1.6656   -1.7539 O.co2     1 UNK         0.0000 
     14 C14         0.5400   -3.7901   -0.7326 C.3       1 UNK         0.0000 
     15 C15         2.0605   -3.5511   -0.4711 C.3       1 UNK         0.0000 
     16 C16         2.3684   -2.5134    0.6301 C.3       1 UNK         0.0000 
     17 C17         3.7933   -1.8709    0.5851 C.3       1 UNK         0.0000 
     18 C18         3.8272   -0.3361    0.8800 C.3       1 UNK         0.0000 
     19 H19         4.8134   -0.1146    1.2581 H         1 UNK         0.0000 
     20 C20         3.4620    0.4700   -0.3889 C.2       1 UNK         0.0000 
     21 O21         2.3741    0.3066   -0.9656 O.co2     1 UNK         0.0000 
     22 O22         4.3976    1.3120   -0.9207 O.3       1 UNK         0.0000 
     23 C23         5.7449    1.4470   -0.4907 C.3       1 UNK         0.0000 
     24 N24         2.9550   -0.0952    2.0528 N.am      1 UNK         0.0000 
     25 C25         2.4733    0.9575    2.7330 C.2       1 UNK         0.0000 
     26 O26         1.9424    0.7195    3.8126 O.2       1 UNK         0.0000 
     27 C27         2.6210    2.4212    2.2638 C.3       1 UNK         0.0000 
     28 C28         1.3195    3.1508    1.7676 C.3       1 UNK         0.0000 
     29 O29         0.3210    2.9379    2.7741 O.3       1 UNK         0.0000 
     30 C30         0.9049    2.5017    0.3971 C.2       1 UNK         0.0000 
     31 O31         0.2584    1.4198    0.3580 O.co2     1 UNK         0.0000 
     32 O32         1.4367    2.9225   -0.6484 O.co2     1 UNK         0.0000 
     33 C33         1.5629    4.6891    1.5556 C.3       1 UNK         0.0000 
     34 C34         0.3295    5.5454    1.2208 C.2       1 UNK         0.0000 
     35 O35        -0.6274    5.5512    1.9873 O.2       1 UNK         0.0000 
     36 N36         0.3580    6.3108    0.1072 N.am      1 UNK         0.0000 
     37 C37        -0.6818    7.2466   -0.3956 C.3       1 UNK         0.0000 
     38 H38        -0.2864    7.7073   -1.3033 H         1 UNK         0.0000 
     39 C39        -0.9521    8.3797    0.6219 C.2       1 UNK         0.0000 
     40 O40        -1.5050    8.2199    1.7131 O.2       1 UNK         0.0000 
     41 O41        -0.5517    9.5935    0.1641 O.3       1 UNK         0.0000 
     42 C42        -0.7389   10.7395    0.9965 C.3       1 UNK         0.0000 
     43 C43        -2.0173    6.5338   -0.7846 C.3       1 UNK         0.0000 
     44 C44        -2.0346    5.6537   -2.0641 C.3       1 UNK         0.0000 
     45 C45        -1.1593    4.3853   -2.0403 C.3       1 UNK         0.0000 
     46 C46        -1.3642    3.4561   -3.2688 C.3       1 UNK         0.0000 
     47 N47        -0.7219    2.1359   -3.1127 N.am      1 UNK         0.0000 
     48 O48        -0.9412    1.4856   -1.9735 O.co2     1 UNK         0.0000 
     49 C49         0.2889    1.5810   -3.8473 C.2       1 UNK         0.0000 
     50 O50         0.7503    0.6021   -3.2305 O.co2     1 UNK         0.0000 
     51 C51         0.7281    2.0377   -5.1378 C.2       1 UNK         0.0000 
     52 C52         1.6153    1.2845   -5.8314 C.2       1 UNK         0.0000 
     53 C53         2.1552    1.5115   -7.1882 C.ar      1 UNK         0.0000 
     54 C54         1.7789    2.6023   -7.9837 C.ar      1 UNK         0.0000 
     55 C55         2.2681    2.7326   -9.2835 C.ar      1 UNK         0.0000 
     56 C56         3.1417    1.7718   -9.7926 C.ar      1 UNK         0.0000 
     57 C57         3.5217    0.6797   -9.0168 C.ar      1 UNK         0.0000 
     58 C58         3.0313    0.5544   -7.7198 C.ar      1 UNK         0.0000 
     59 H59        -2.7691   -7.0544    0.0527 H         1 UNK         0.0000 
     60 H60        -4.6130   -8.3801    0.9919 H         1 UNK         0.0000 
     61 H61        -6.5397   -7.2467    2.0630 H         1 UNK         0.0000 
     62 H62        -6.6005   -4.7789    2.2195 H         1 UNK         0.0000 
     63 H63        -4.8003   -3.4525    1.3083 H         1 UNK         0.0000 
     64 H64         0.1166   -4.2278    0.1717 H         1 UNK         0.0000 
     65 H65         0.4130   -4.5416   -1.5155 H         1 UNK         0.0000 
     66 H66         2.5050   -3.2266   -1.4107 H         1 UNK         0.0000 
     67 H67         2.5275   -4.4986   -0.2191 H         1 UNK         0.0000 
     68 H68         2.2047   -2.9819    1.6062 H         1 UNK         0.0000 
     69 H69         1.6161   -1.7250    0.5715 H         1 UNK         0.0000 
     70 H70         4.3211   -2.1013   -0.3442 H         1 UNK         0.0000 
     71 H71         4.3967   -2.3667    1.3528 H         1 UNK         0.0000 
     72 H72         6.3649    1.5806   -1.3697 H         1 UNK         0.0000 
     73 H73         6.1655    0.5841    0.0170 H         1 UNK         0.0000 
     74 H74         5.8748    2.3252    0.1353 H         1 UNK         0.0000 
     75 H75         2.7717   -0.9461    2.5576 H         1 UNK         0.0000 
     76 H76         2.9661    2.9547    3.1441 H         1 UNK         0.0000 
     77 H77         3.4301    2.5205    1.5446 H         1 UNK         0.0000 
     78 H78         0.4695    3.5372    3.5054 H         1 UNK         0.0000 
     79 H79         2.3120    4.8405    0.7761 H         1 UNK         0.0000 
     80 H80         1.9891    5.1317    2.4512 H         1 UNK         0.0000 
     81 H81         1.1335    6.1723   -0.5183 H         1 UNK         0.0000 
     82 H82        -0.1111   10.6670    1.8866 H         1 UNK         0.0000 
     83 H83        -1.7774   10.8331    1.3262 H         1 UNK         0.0000 
     84 H84        -0.4772   11.6634    0.4788 H         1 UNK         0.0000 
     85 H85        -2.7827    7.2979   -0.9314 H         1 UNK         0.0000 
     86 H86        -2.3745    5.9477    0.0667 H         1 UNK         0.0000 
     87 H87        -1.7884    6.2615   -2.9342 H         1 UNK         0.0000 
     88 H88        -3.0706    5.3314   -2.1975 H         1 UNK         0.0000 
     89 H89        -0.1040    4.6491   -2.0060 H         1 UNK         0.0000 
     90 H90        -1.3845    3.8360   -1.1230 H         1 UNK         0.0000 
     91 H91        -2.4301    3.2644   -3.4259 H         1 UNK         0.0000 
     92 H92        -1.0378    3.9711   -4.1762 H         1 UNK         0.0000 
     93 H93         1.0910    3.3466   -7.6111 H         1 UNK         0.0000 
     94 H94         1.9643    3.5720   -9.8981 H         1 UNK         0.0000 
     95 H95         3.5149    1.8666  -10.8011 H         1 UNK         0.0000 
     96 H96         4.1872   -0.0700   -9.4225 H         1 UNK         0.0000 
     97 H97         3.3263   -0.3090   -7.1388 H         1 UNK         0.0000 
     98 H98         1.9902    0.3800   -5.3642 H         1 UNK         0.0000 
     99 H99         0.3351    2.9652   -5.5235 H         1 UNK         0.0000 
    100 H100       -3.1548   -2.4485    0.5529 H         1 UNK         0.0000 
    101 H101       -1.8098   -4.9675   -0.6048 H         1 UNK         0.0000 
@<TRIPOS>BOND
     1    1   11 nc   
     2    1   13 nc   
     3    1   21 nc   
     4    1   31 nc   
     5    1   48 nc   
     6    1   50 nc   
     7    2    7 ar   
     8    2    3 ar   
     9    2   59 1    
    10    3    4 ar   
    11    3   60 1    
    12    4    5 ar   
    13    4   61 1    
    14    5   62 1    
    15    5    6 ar   
    16    6   63 1    
    17    6    7 ar   
    18    7    8 1    
    19    8    9 2    
    20    8  101 1    
    21    9   10 1    
    22    9  100 1    
    23   10   11 2    
    24   10   12 am   BACKBONE|DICT|INTERRES
    25   12   14 1    
    26   12   13 1    
    27   14   15 1    
    28   14   64 1    
    29   14   65 1    
    30   15   67 1    
    31   15   16 1    
    32   15   66 1    
    33   16   17 1    
    34   16   68 1    
    35   16   69 1    
    36   17   18 1    
    37   17   71 1    
    38   17   70 1    
    39   18   19 1    
    40   18   24 1    
    41   18   20 1    
    42   20   22 1    
    43   20   21 2    
    44   22   23 1    
    45   23   74 1    
    46   23   73 1    
    47   23   72 1    
    48   24   75 1    
    49   24   25 am   BACKBONE|DICT|INTERRES
    50   25   26 2    
    51   25   27 1    
    52   27   76 1    
    53   27   28 1    
    54   27   77 1    
    55   28   29 1    
    56   28   30 1    
    57   28   33 1    
    58   29   78 1    
    59   30   31 1    
    60   30   32 2    
    61   33   80 1    
    62   33   34 1    
    63   33   79 1    
    64   34   35 2    
    65   34   36 am   BACKBONE|DICT|INTERRES
    66   36   37 1    
    67   36   81 1    
    68   37   38 1    
    69   37   39 1    
    70   37   43 1    
    71   39   40 2    
    72   39   41 1    
    73   41   42 1    
    74   42   83 1    
    75   42   82 1    
    76   42   84 1    
    77   43   86 1    
    78   43   44 1    
    79   43   85 1    
    80   44   45 1    
    81   44   87 1    
    82   44   88 1    
    83   45   89 1    
    84   45   90 1    
    85   45   46 1    
    86   46   47 1    
    87   46   91 1    
    88   46   92 1    
    89   47   48 1    
    90   47   49 am   BACKBONE|DICT|INTERRES
    91   49   50 2    
    92   49   51 1    
    93   51   52 2    
    94   51   99 1    
    95   52   53 1    
    96   52   98 1    
    97   53   54 ar   
    98   53   58 ar   
    99   54   93 1    
   100   54   55 ar   
   101   55   56 ar   
   102   55   94 1    
   103   56   57 ar   
   104   56   95 1    
   105   57   58 ar   
   106   57   96 1    
   107   58   97 1    
@<TRIPOS>SUBSTRUCTURE
     1 UNK         1 GROUP             0       ****    0 ROOT    
