@<TRIPOS>MOLECULE
158_c1
74   82    1
SMALL
USER_CHARGES


@<TRIPOS>ATOM
      1 Fe1         0.5752    2.8058    1.1986 Fe        1 UNK         0.0000 
      2 C2         -3.2349    2.0876   -2.1618 C.ar      1 UNK         0.0000 
      3 C3         -3.7879    3.1200   -1.4061 C.ar      1 UNK         0.0000 
      4 C4         -2.9791    3.8748   -0.5645 C.ar      1 UNK         0.0000 
      5 C5         -1.6310    3.5702   -0.4502 C.ar      1 UNK         0.0000 
      6 O6         -0.9142    4.2527    0.3364 O.co2     1 UNK         0.0000 
      7 C7         -1.0705    2.4980   -1.1692 C.ar      1 UNK         0.0000 
      8 O8          0.1436    2.2228   -0.9090 O.co2     1 UNK         0.0000 
      9 C9         -1.8764    1.7613   -2.0808 C.ar      1 UNK         0.0000 
     10 C10        -1.3814    0.6560   -3.0058 C.2       1 UNK         0.0000 
     11 O11        -2.0483    0.2901   -3.9855 O.2       1 UNK         0.0000 
     12 N12        -0.1933    0.1130   -2.7432 N.am      1 UNK         0.0000 
     13 C13         0.5587   -0.7700   -3.6516 C.3       1 UNK         0.0000 
     14 C14         0.3651   -2.2852   -3.4101 C.3       1 UNK         0.0000 
     15 C15         1.5099   -2.9752   -2.6387 C.3       1 UNK         0.0000 
     16 N16         1.4696   -2.8400   -1.1572 N.am      1 UNK         0.0000 
     17 C17         0.5860   -3.6420   -0.4831 C.2       1 UNK         0.0000 
     18 O18         0.0339   -4.5922   -1.0694 O.2       1 UNK         0.0000 
     19 C19         0.2097   -3.4971    1.0218 C.3       1 UNK         0.0000 
     20 H20        -0.6992   -4.0885    1.1211 H         1 UNK         0.0000 
     21 N21        -0.1961   -2.1934    1.4304 N.2       1 UNK         0.0000 
     22 C22         0.2526   -2.0401    2.6187 C.2       1 UNK         0.0000 
     23 O23         0.9766   -3.1020    3.0987 O.3       1 UNK         0.0000 
     24 C24         1.2726   -3.9610    2.0164 C.3       1 UNK         0.0000 
     25 H25         2.2998   -3.7641    1.6943 H         1 UNK         0.0000 
     26 C26         1.1214   -5.4256    2.4428 C.3       1 UNK         0.0000 
     27 C27         0.0110   -0.8802    3.4969 C.ar      1 UNK         0.0000 
     28 C28         0.0558    0.4243    2.9871 C.ar      1 UNK         0.0000 
     29 O29         0.6240    0.7093    1.8934 O.co2     1 UNK         0.0000 
     30 C30        -0.5071    1.4931    3.6930 C.ar      1 UNK         0.0000 
     31 O31        -0.5993    2.6118    3.1045 O.co2     1 UNK         0.0000 
     32 C32        -0.9796    1.3079    4.9817 C.ar      1 UNK         0.0000 
     33 C33        -0.8885    0.0440    5.5692 C.ar      1 UNK         0.0000 
     34 C34        -0.4234   -1.0501    4.8211 C.ar      1 UNK         0.0000 
     35 C35         2.3803   -1.8488   -0.4954 C.3       1 UNK         0.0000 
     36 C36         3.4675   -1.1995   -1.4073 C.3       1 UNK         0.0000 
     37 C37         4.6376   -0.5004   -0.7063 C.3       1 UNK         0.0000 
     38 N38         4.2567    0.5880    0.1863 N.am      1 UNK         0.0000 
     39 C39         5.0825    1.2705    0.9765 C.2       1 UNK         0.0000 
     40 O40         6.2913    0.9821    1.0630 O.2       1 UNK         0.0000 
     41 C41         4.4464    2.3589    1.8075 C.ar      1 UNK         0.0000 
     42 C42         3.1855    2.9443    1.5261 C.ar      1 UNK         0.0000 
     43 O43         2.3482    2.5560    0.6409 O.co2     1 UNK         0.0000 
     44 C44         2.6612    3.9026    2.3879 C.ar      1 UNK         0.0000 
     45 O45         1.4704    4.2149    2.1481 O.co2     1 UNK         0.0000 
     46 C46         3.3146    4.2861    3.5478 C.ar      1 UNK         0.0000 
     47 C47         4.5421    3.6997    3.8503 C.ar      1 UNK         0.0000 
     48 C48         5.1075    2.7506    2.9848 C.ar      1 UNK         0.0000 
     49 H49        -3.8777    1.5254   -2.8222 H         1 UNK         0.0000 
     50 H50        -4.8389    3.3376   -1.4871 H         1 UNK         0.0000 
     51 H51        -3.3948    4.6696    0.0303 H         1 UNK         0.0000 
     52 H52         0.2264    0.6037   -1.9392 H         1 UNK         0.0000 
     53 H53         1.6073   -0.4795   -3.6675 H         1 UNK         0.0000 
     54 H54         0.2449   -0.5685   -4.6805 H         1 UNK         0.0000 
     55 H55        -0.6049   -2.4968   -2.9539 H         1 UNK         0.0000 
     56 H56         0.3189   -2.7634   -4.3938 H         1 UNK         0.0000 
     57 H57         2.4488   -2.6341   -3.0636 H         1 UNK         0.0000 
     58 H58         1.4984   -4.0384   -2.8902 H         1 UNK         0.0000 
     59 H59         1.3300   -6.0878    1.5988 H         1 UNK         0.0000 
     60 H60         1.8105   -5.6811    3.2489 H         1 UNK         0.0000 
     61 H61         0.1056   -5.6201    2.7801 H         1 UNK         0.0000 
     62 H62        -1.3819    2.1544    5.5089 H         1 UNK         0.0000 
     63 H63        -1.2374   -0.0950    6.5783 H         1 UNK         0.0000 
     64 H64        -0.4452   -2.0384    5.2482 H         1 UNK         0.0000 
     65 H65         1.8266   -1.0555    0.0229 H         1 UNK         0.0000 
     66 H66         2.9184   -2.3686    0.2992 H         1 UNK         0.0000 
     67 H67         2.9984   -0.4711   -2.0671 H         1 UNK         0.0000 
     68 H68         3.9602   -1.9501   -2.0323 H         1 UNK         0.0000 
     69 H69         5.3356   -0.1180   -1.4632 H         1 UNK         0.0000 
     70 H70         5.1858   -1.2434   -0.1187 H         1 UNK         0.0000 
     71 H71         3.3416    1.0654    0.1590 H         1 UNK         0.0000 
     72 H72         2.8275    4.9410    4.2515 H         1 UNK         0.0000 
     73 H73         5.0390    3.9327    4.7753 H         1 UNK         0.0000 
     74 H74         6.0407    2.2767    3.2545 H         1 UNK         0.0000 
@<TRIPOS>BOND
     1    1    6 nc   
     2    1    8 nc   
     3    1   29 nc   
     4    1   31 nc   
     5    1   43 nc   
     6    1   45 nc   
     7    2    9 ar   
     8    2    3 ar   
     9    2   49 1    
    10    3    4 ar   
    11    3   50 1    
    12    4    5 ar   
    13    4   51 1    
    14    5    6 1    
    15    5    7 ar   
    16    7    8 1    
    17    7    9 ar   
    18    9   10 1    
    19   10   12 am   BACKBONE|DICT|INTERRES
    20   10   11 2    
    21   12   52 1    
    22   12   13 1    
    23   13   14 1    
    24   13   53 1    
    25   13   54 1    
    26   14   55 1    
    27   14   15 1    
    28   14   56 1    
    29   15   16 1    
    30   15   57 1    
    31   15   58 1    
    32   16   35 1    
    33   16   17 am   BACKBONE|DICT|INTERRES
    34   17   19 1    
    35   17   18 2    
    36   19   20 1    
    37   19   21 1    
    38   19   24 1    
    39   21   22 2    
    40   22   23 1    
    41   22   27 1    
    42   23   24 1    
    43   24   25 1    
    44   24   26 1    
    45   26   61 1    
    46   26   60 1    
    47   26   59 1    
    48   27   34 ar   
    49   27   28 ar   
    50   28   30 ar   
    51   28   29 1    
    52   30   32 ar   
    53   30   31 1    
    54   32   62 1    
    55   32   33 ar   
    56   33   63 1    
    57   33   34 ar   
    58   34   64 1    
    59   35   65 1    
    60   35   66 1    
    61   35   36 1    
    62   36   37 1    
    63   36   67 1    
    64   36   68 1    
    65   37   70 1    
    66   37   38 1    
    67   37   69 1    
    68   38   39 am   BACKBONE|DICT|INTERRES
    69   38   71 1    
    70   39   40 2    
    71   39   41 1    
    72   41   48 ar   
    73   41   42 ar   
    74   42   44 ar   
    75   42   43 1    
    76   44   46 ar   
    77   44   45 1    
    78   46   47 ar   
    79   46   72 1    
    80   47   73 1    
    81   47   48 ar   
    82   48   74 1    
@<TRIPOS>SUBSTRUCTURE
     1 UNK         1 GROUP             0       ****    0 ROOT    
