@<TRIPOS>MOLECULE
025_r2_c1
77   85    1
SMALL
USER_CHARGES


@<TRIPOS>ATOM
      1 Fe1         1.7259   -2.6216   -0.6585 Fe        1 UNK         0.0000 
      2 C2         -1.5824   -3.7612    2.8340 C.ar      1 UNK         0.0000 
      3 C3         -0.6688   -4.8058    3.0467 C.ar      1 UNK         0.0000 
      4 C4          0.2701   -5.1092    2.0670 C.ar      1 UNK         0.0000 
      5 C5          0.2633   -4.3408    0.9117 C.ar      1 UNK         0.0000 
      6 O6          1.0804   -4.4522   -0.1291 O.co2     1 UNK         0.0000 
      7 C7         -0.5711   -3.3330    0.6844 C.ar      1 UNK         0.0000 
      8 O8         -0.2269   -2.8263   -0.5277 O.co2     1 UNK         0.0000 
      9 C9         -1.5700   -2.9781    1.6387 C.ar      1 UNK         0.0000 
     10 C10        -2.6298   -1.9095    1.5431 C.2       1 UNK         0.0000 
     11 O11        -3.5383   -1.9874    2.3652 O.2       1 UNK         0.0000 
     12 N12        -2.6771   -0.8796    0.6381 N.am      1 UNK         0.0000 
     13 C13        -3.8719   -0.0294    0.6658 C.3       1 UNK         0.0000 
     14 C14        -3.9498    1.1912   -0.2666 C.3       1 UNK         0.0000 
     15 C15        -3.3633    2.5517    0.2217 C.3       1 UNK         0.0000 
     16 N16        -1.9567    2.8446   -0.0870 N.am      1 UNK         0.0000 
     17 C17        -0.9157    2.4718    0.7366 C.2       1 UNK         0.0000 
     18 O18         0.2189    2.8578    0.4786 O.2       1 UNK         0.0000 
     19 C19        -1.0714    1.6169    1.9821 C.3       1 UNK         0.0000 
     20 H20        -2.0902    1.2303    2.1086 H         1 UNK         0.0000 
     21 N21        -0.1262    0.5554    1.8370 N.2       1 UNK         0.0000 
     22 C22         0.7629    0.6270    2.7491 C.2       1 UNK         0.0000 
     23 O23         0.5317    1.5916    3.6561 O.3       1 UNK         0.0000 
     24 C24        -0.6351    2.2533    3.3338 C.3       1 UNK         0.0000 
     25 H25        -1.3835    1.9936    4.1158 H         1 UNK         0.0000 
     26 C26        -0.4441    3.7726    3.3402 C.3       1 UNK         0.0000 
     27 C27         1.9406   -0.2653    2.7761 C.ar      1 UNK         0.0000 
     28 C28         2.3408   -0.9934    1.6425 C.ar      1 UNK         0.0000 
     29 O29         1.8515   -1.0054    0.4028 O.co2     1 UNK         0.0000 
     30 C30         3.3650   -1.8021    1.6365 C.ar      1 UNK         0.0000 
     31 O31         3.4604   -2.3279    0.4099 O.co2     1 UNK         0.0000 
     32 C32         4.1651   -2.0062    2.7617 C.ar      1 UNK         0.0000 
     33 C33         3.8372   -1.2929    3.9314 C.ar      1 UNK         0.0000 
     34 C34         2.7271   -0.4169    3.9390 C.ar      1 UNK         0.0000 
     35 C35        -1.6645    3.7752   -1.1925 C.3       1 UNK         0.0000 
     36 C36        -0.8613    3.1248   -2.3340 C.3       1 UNK         0.0000 
     37 C37        -1.6981    2.0720   -3.0643 C.3       1 UNK         0.0000 
     38 C38        -0.9576    1.4350   -4.2328 C.3       1 UNK         0.0000 
     39 N39         0.1214    0.5976   -3.7429 N.am      1 UNK         0.0000 
     40 C40         1.4222    0.7614   -4.1003 C.2       1 UNK         0.0000 
     41 O41         1.7209    1.6984   -4.8294 O.2       1 UNK         0.0000 
     42 C42         2.5149   -0.1782   -3.6749 C.ar      1 UNK         0.0000 
     43 C43         2.3928   -1.3562   -2.8754 C.ar      1 UNK         0.0000 
     44 O44         1.4179   -2.0538   -2.1997 O.co2     1 UNK         0.0000 
     45 C45         3.3771   -2.0996   -2.6278 C.ar      1 UNK         0.0000 
     46 O46         2.7719   -3.0638   -1.9071 O.co2     1 UNK         0.0000 
     47 C47         4.6875   -1.8926   -3.0331 C.ar      1 UNK         0.0000 
     48 C48         4.9235   -0.7373   -3.7879 C.ar      1 UNK         0.0000 
     49 C49         3.8438    0.1128   -4.1155 C.ar      1 UNK         0.0000 
     50 H50        -2.2938   -3.5701    3.6272 H         1 UNK         0.0000 
     51 H51        -0.6949   -5.3720    3.9682 H         1 UNK         0.0000 
     52 H52         0.9858   -5.9085    2.2070 H         1 UNK         0.0000 
     53 H53        -1.9211   -0.7237   -0.0463 H         1 UNK         0.0000 
     54 H54        -4.7203   -0.6960    0.3865 H         1 UNK         0.0000 
     55 H55        -4.0830    0.3332    1.6961 H         1 UNK         0.0000 
     56 H56        -3.7547    0.9407   -1.3207 H         1 UNK         0.0000 
     57 H57        -5.0446    1.4025   -0.2474 H         1 UNK         0.0000 
     58 H58        -3.9830    3.3009   -0.3182 H         1 UNK         0.0000 
     59 H59        -3.6011    2.7649    1.2861 H         1 UNK         0.0000 
     60 H60        -1.3958    4.2753    3.0667 H         1 UNK         0.0000 
     61 H61         0.3548    4.0849    2.6378 H         1 UNK         0.0000 
     62 H62        -0.1474    4.1032    4.3579 H         1 UNK         0.0000 
     63 H63         5.0109   -2.6805    2.7342 H         1 UNK         0.0000 
     64 H64         4.4345   -1.4169    4.8251 H         1 UNK         0.0000 
     65 H65         2.4796    0.1221    4.8449 H         1 UNK         0.0000 
     66 H66        -2.5885    4.1949   -1.6459 H         1 UNK         0.0000 
     67 H67        -1.1028    4.6471   -0.7907 H         1 UNK         0.0000 
     68 H68        -0.5976    3.9211   -3.0642 H         1 UNK         0.0000 
     69 H69         0.0840    2.6820   -1.9598 H         1 UNK         0.0000 
     70 H70        -2.6201    2.5567   -3.4545 H         1 UNK         0.0000 
     71 H71        -1.9696    1.2625   -2.3673 H         1 UNK         0.0000 
     72 H72        -0.6159    2.2220   -4.9398 H         1 UNK         0.0000 
     73 H73        -1.6686    0.7801   -4.7811 H         1 UNK         0.0000 
     74 H74        -0.1589   -0.1546   -3.1176 H         1 UNK         0.0000 
     75 H75         5.4823   -2.5766   -2.7664 H         1 UNK         0.0000 
     76 H76         5.9252   -0.5032   -4.1241 H         1 UNK         0.0000 
     77 H77         4.0571    0.9908   -4.7117 H         1 UNK         0.0000 
@<TRIPOS>BOND
     1    1    6 nc   
     2    1    8 nc   
     3    1   29 nc   
     4    1   31 nc   
     5    1   44 nc   
     6    1   46 nc   
     7    2    3 ar   
     8    2   50 1    
     9    2    9 ar   
    10    3   51 1    
    11    3    4 ar   
    12    4   52 1    
    13    4    5 ar   
    14    5    6 1    
    15    5    7 ar   
    16    7    9 ar   
    17    7    8 1    
    18    9   10 1    
    19   10   11 2    
    20   10   12 am   BACKBONE|DICT|INTERRES
    21   12   13 1    
    22   12   53 1    
    23   13   55 1    
    24   13   14 1    
    25   13   54 1    
    26   14   57 1    
    27   14   15 1    
    28   14   56 1    
    29   15   59 1    
    30   15   16 1    
    31   15   58 1    
    32   16   17 am   BACKBONE|DICT|INTERRES
    33   16   35 1    
    34   17   19 1    
    35   17   18 2    
    36   19   20 1    
    37   19   24 1    
    38   19   21 1    
    39   21   22 2    
    40   22   27 1    
    41   22   23 1    
    42   23   24 1    
    43   24   26 1    
    44   24   25 1    
    45   26   62 1    
    46   26   60 1    
    47   26   61 1    
    48   27   34 ar   
    49   27   28 ar   
    50   28   29 1    
    51   28   30 ar   
    52   30   32 ar   
    53   30   31 1    
    54   32   33 ar   
    55   32   63 1    
    56   33   34 ar   
    57   33   64 1    
    58   34   65 1    
    59   35   67 1    
    60   35   36 1    
    61   35   66 1    
    62   36   69 1    
    63   36   37 1    
    64   36   68 1    
    65   37   71 1    
    66   37   38 1    
    67   37   70 1    
    68   38   39 1    
    69   38   72 1    
    70   38   73 1    
    71   39   74 1    
    72   39   40 am   BACKBONE|DICT|INTERRES
    73   40   42 1    
    74   40   41 2    
    75   42   43 ar   
    76   42   49 ar   
    77   43   45 ar   
    78   43   44 1    
    79   45   46 1    
    80   45   47 ar   
    81   47   75 1    
    82   47   48 ar   
    83   48   49 ar   
    84   48   76 1    
    85   49   77 1    
@<TRIPOS>SUBSTRUCTURE
     1 UNK         1 GROUP             0       ****    0 ROOT    
