@<TRIPOS>MOLECULE
185_E_c1
57   64    1
SMALL
USER_CHARGES


@<TRIPOS>ATOM
      1 Fe1        -0.7608   -1.6086   -0.8063 Fe        1 UNK         0.0000 
      2 C2          3.8546   -2.6383    1.0964 C.ar      1 UNK         0.0000 
      3 C3          3.6222   -3.9495    0.6670 C.ar      1 UNK         0.0000 
      4 C4          2.3515   -4.3248    0.2247 C.ar      1 UNK         0.0000 
      5 C5          1.3060   -3.4042    0.2416 C.ar      1 UNK         0.0000 
      6 O6          0.1779   -3.6777   -0.2820 O.co2     1 UNK         0.0000 
      7 C7          1.5267   -2.1122    0.7314 C.ar      1 UNK         0.0000 
      8 O8          0.5296   -1.3365    0.7095 O.co2     1 UNK         0.0000 
      9 C9          2.8197   -1.6872    1.1130 C.ar      1 UNK         0.0000 
     10 C10         3.1329   -0.2415    1.4741 C.2       1 UNK         0.0000 
     11 O11         4.0510    0.0652    2.2518 O.2       1 UNK         0.0000 
     12 N12         2.3816    0.6773    0.8461 N.am      1 UNK         0.0000 
     13 C13         2.3552    2.1071    1.1487 C.3       1 UNK         0.0000 
     14 C14         1.3223    2.9834    0.3720 C.3       1 UNK         0.0000 
     15 H15         1.2201    3.8642    1.0090 H         1 UNK         0.0000 
     16 N16        -0.0183    2.3978    0.3137 N.am      1 UNK         0.0000 
     17 C17        -1.1195    2.7620    0.9931 C.2       1 UNK         0.0000 
     18 O18        -1.2312    3.8670    1.5508 O.2       1 UNK         0.0000 
     19 C19        -2.1257    1.6387    1.2191 C.ar      1 UNK         0.0000 
     20 C20        -2.2061    0.5061    0.3749 C.ar      1 UNK         0.0000 
     21 O21        -1.6356    0.4460   -0.7537 O.co2     1 UNK         0.0000 
     22 C22        -2.8484   -0.6575    0.8090 C.ar      1 UNK         0.0000 
     23 O23        -2.6279   -1.7440    0.1904 O.co2     1 UNK         0.0000 
     24 C24        -3.6071   -0.6427    1.9764 C.ar      1 UNK         0.0000 
     25 C25        -3.6632    0.5179    2.7509 C.ar      1 UNK         0.0000 
     26 C26        -2.9015    1.6380    2.3960 C.ar      1 UNK         0.0000 
     27 C27         1.8094    3.5654   -0.9806 C.3       1 UNK         0.0000 
     28 C28         2.4371    2.6152   -2.0268 C.3       1 UNK         0.0000 
     29 N29         1.5171    1.6545   -2.6046 N.am      1 UNK         0.0000 
     30 C30         1.2183    1.4543   -3.8905 C.2       1 UNK         0.0000 
     31 O31         1.6371    2.1942   -4.7976 O.2       1 UNK         0.0000 
     32 C32         0.2921    0.2733   -4.1714 C.ar      1 UNK         0.0000 
     33 C33        -0.0030   -0.7247   -3.2087 C.ar      1 UNK         0.0000 
     34 O34         0.4408   -0.7465   -2.0243 O.co2     1 UNK         0.0000 
     35 C35        -0.9580   -1.7107   -3.4652 C.ar      1 UNK         0.0000 
     36 O36        -1.3311   -2.4350   -2.4900 O.co2     1 UNK         0.0000 
     37 C37        -1.5698   -1.7863   -4.7113 C.ar      1 UNK         0.0000 
     38 C38        -1.2614   -0.8432   -5.6908 C.ar      1 UNK         0.0000 
     39 C39        -0.3499    0.1829   -5.4190 C.ar      1 UNK         0.0000 
     40 H40         4.8476   -2.3493    1.3966 H         1 UNK         0.0000 
     41 H41         4.4255   -4.6645    0.6474 H         1 UNK         0.0000 
     42 H42         2.1615   -5.3103   -0.1683 H         1 UNK         0.0000 
     43 H43         1.5378    0.2135    0.4826 H         1 UNK         0.0000 
     44 H44         2.1291    2.1867    2.2138 H         1 UNK         0.0000 
     45 H45         3.3581    2.5097    1.0028 H         1 UNK         0.0000 
     46 H46        -0.2230    1.5709   -0.2647 H         1 UNK         0.0000 
     47 H47        -4.1056   -1.5488    2.2906 H         1 UNK         0.0000 
     48 H48        -4.2426    0.5261    3.6567 H         1 UNK         0.0000 
     49 H49        -2.8836    2.4966    3.0539 H         1 UNK         0.0000 
     50 H50         1.0067    4.1380   -1.4431 H         1 UNK         0.0000 
     51 H51         2.5784    4.2960   -0.7445 H         1 UNK         0.0000 
     52 H52         3.2224    2.0185   -1.5559 H         1 UNK         0.0000 
     53 H53         2.9281    3.2017   -2.8063 H         1 UNK         0.0000 
     54 H54         1.1887    0.8367   -2.0666 H         1 UNK         0.0000 
     55 H55        -2.3233   -2.5368   -4.8750 H         1 UNK         0.0000 
     56 H56        -1.7584   -0.8808   -6.6433 H         1 UNK         0.0000 
     57 H57        -0.1572    0.9272   -6.1767 H         1 UNK         0.0000 
@<TRIPOS>BOND
     1    1    6 nc   
     2    1    8 nc   
     3    1   21 nc   
     4    1   23 nc   
     5    1   34 nc   
     6    1   36 nc   
     7    2   40 1    
     8    2    3 ar   
     9    2    9 ar   
    10    3    4 ar   
    11    3   41 1    
    12    4    5 ar   
    13    4   42 1    
    14    5    7 ar   
    15    5    6 1    
    16    7    9 ar   
    17    7    8 1    
    18    9   10 1    
    19   10   11 2    
    20   10   12 am   BACKBONE|DICT|INTERRES
    21   12   13 1    
    22   12   43 1    
    23   13   44 1    
    24   13   14 1    
    25   13   45 1    
    26   14   15 1    
    27   14   16 1    
    28   14   27 1    
    29   16   17 am   BACKBONE|DICT|INTERRES
    30   16   46 1    
    31   17   19 1    
    32   17   18 2    
    33   19   26 ar   
    34   19   20 ar   
    35   20   22 ar   
    36   20   21 1    
    37   22   24 ar   
    38   22   23 1    
    39   24   47 1    
    40   24   25 ar   
    41   25   48 1    
    42   25   26 ar   
    43   26   49 1    
    44   27   51 1    
    45   27   28 1    
    46   27   50 1    
    47   28   52 1    
    48   28   29 1    
    49   28   53 1    
    50   29   54 1    
    51   29   30 am   BACKBONE|DICT|INTERRES
    52   30   31 2    
    53   30   32 1    
    54   32   33 ar   
    55   32   39 ar   
    56   33   34 1    
    57   33   35 ar   
    58   35   36 1    
    59   35   37 ar   
    60   37   38 ar   
    61   37   55 1    
    62   38   39 ar   
    63   38   56 1    
    64   39   57 1    
@<TRIPOS>SUBSTRUCTURE
     1 UNK         1 GROUP             0       ****    0 ROOT    
