@<TRIPOS>MOLECULE
164_c1
132   138    1
SMALL
USER_CHARGES


@<TRIPOS>ATOM
      1 C1          8.5063  -12.7187   -2.6455 C.ar      1 UNK         0.0000 
      2 C2          7.2331  -13.2523   -2.8447 C.ar      1 UNK         0.0000 
      3 C3          6.8592  -14.4171   -2.1911 C.ar      1 UNK         0.0000 
      4 C4          7.7607  -15.0707   -1.3541 C.ar      1 UNK         0.0000 
      5 O5          7.3830  -16.1365   -0.7950 O.co2     1 UNK         0.0000 
      6 C6          9.0599  -14.5540   -1.1527 C.ar      1 UNK         0.0000 
      7 O7          9.9018  -15.2255   -0.4557 O.co2     1 UNK         0.0000 
      8 C8          9.3913  -13.2958   -1.7227 C.ar      1 UNK         0.0000 
      9 C9         10.6178  -12.5257   -1.2806 C.2       1 UNK         0.0000 
     10 O10        11.7584  -12.7700   -1.6663 O.2       1 UNK         0.0000 
     11 N11        10.5095  -11.5395   -0.3834 N.am      1 UNK         0.0000 
     12 C12         9.8725  -10.2201   -0.5365 C.3       1 UNK         0.0000 
     13 H13        10.4190   -9.7718   -1.3730 H         1 UNK         0.0000 
     14 C14        10.2292   -9.3440    0.7134 C.3       1 UNK         0.0000 
     15 C15         9.4617   -7.9980    0.8259 C.3       1 UNK         0.0000 
     16 C16         9.7203   -7.1959    2.1086 C.3       1 UNK         0.0000 
     17 N17         8.8230   -6.0226    2.1335 N.pl3     1 UNK         0.0000 
     18 C18         9.1256   -4.7225    1.9983 C.cat     1 UNK         0.0000 
     19 N19         8.1326   -3.8376    1.9446 N.pl3     1 UNK         0.0000 
     20 N20        10.3840   -4.3078    1.9197 N.pl3     1 UNK         0.0000 
     21 H21        11.1492   -4.9641    1.9661 H         1 UNK         0.0000 
     22 H22        10.6455   -3.3318    1.8525 H         1 UNK         0.0000 
     23 C23         8.3854  -10.0568   -0.9878 C.2       1 UNK         0.0000 
     24 O24         8.1492   -9.2063   -1.8448 O.2       1 UNK         0.0000 
     25 N25         7.3463  -10.7185   -0.4651 N.am      1 UNK         0.0000 
     26 C26         7.2776  -11.8130    0.4959 C.3       1 UNK         0.0000 
     27 C27         7.8039  -11.4635    1.8815 C.2       1 UNK         0.0000 
     28 O28         7.5556  -10.3711    2.4053 O.2       1 UNK         0.0000 
     29 N29         8.5135  -12.4321    2.4614 N.am      1 UNK         0.0000 
     30 C30         8.7428  -12.5654    3.9032 C.3       1 UNK         0.0000 
     31 C31         8.0031  -13.8282    4.3703 C.2       1 UNK         0.0000 
     32 O32         7.3465  -13.8067    5.4086 O.2       1 UNK         0.0000 
     33 N33         8.0851  -14.8949    3.5708 N.am      1 UNK         0.0000 
     34 C34         7.2823  -16.1091    3.5134 C.3       1 UNK         0.0000 
     35 H35         7.4130  -16.6957    4.4220 H         1 UNK         0.0000 
     36 C36         5.8047  -15.7148    3.2593 C.3       1 UNK         0.0000 
     37 O37         5.6260  -14.9153    2.0976 O.3       1 UNK         0.0000 
     38 C38         7.8861  -16.8943    2.3302 C.2       1 UNK         0.0000 
     39 O39         8.7726  -16.3382    1.6787 O.co2     1 UNK         0.0000 
     40 N40         7.4127  -18.0847    1.8991 N.am      1 UNK         0.0000 
     41 O41         7.8129  -18.5772    0.7079 O.co2     1 UNK         0.0000 
     42 C42         6.4789  -18.9639    2.6523 C.3       1 UNK         0.0000 
     43 C43         6.9580  -20.4262    2.8527 C.3       1 UNK         0.0000 
     44 C44         8.3093  -20.5473    3.5935 C.3       1 UNK         0.0000 
     45 C45         8.7155  -22.0025    4.0201 C.3       1 UNK         0.0000 
     46 H46         7.8711  -22.4836    4.5233 H         1 UNK         0.0000 
     47 C47         9.0272  -23.0823    2.9006 C.2       1 UNK         0.0000 
     48 O48         8.7735  -22.7877    1.7111 O.co2     1 UNK         0.0000 
     49 O49         9.4151  -24.1910    3.3499 O.co2     1 UNK         0.0000 
     50 N50         9.8778  -21.9563    4.9309 N.am      1 UNK         0.0000 
     51 C51         9.8784  -22.1830    6.2554 C.2       1 UNK         0.0000 
     52 O52         8.8507  -22.3040    6.9223 O.2       1 UNK         0.0000 
     53 C53        11.2362  -22.3122    6.9604 C.3       1 UNK         0.0000 
     54 N54        12.2221  -22.8822    6.0396 N.am      1 UNK         0.0000 
     55 C55        12.4795  -24.1922    5.9207 C.2       1 UNK         0.0000 
     56 O56        12.1831  -25.0207    6.7846 O.2       1 UNK         0.0000 
     57 C57        13.2768  -24.6557    4.6850 C.3       1 UNK         0.0000 
     58 N58        14.0426  -23.5819    4.0152 N.am      1 UNK         0.0000 
     59 C59        13.4741  -22.5997    3.2900 C.2       1 UNK         0.0000 
     60 O60        12.2645  -22.4567    3.2770 O.2       1 UNK         0.0000 
     61 C61        14.4021  -21.5966    2.5392 C.3       1 UNK         0.0000 
     62 H62        15.2039  -22.2010    2.1091 H         1 UNK         0.0000 
     63 C63        15.0484  -20.5263    3.4949 C.3       1 UNK         0.0000 
     64 C64        15.8462  -21.0319    4.7180 C.3       1 UNK         0.0000 
     65 C65        17.1720  -21.7400    4.3601 C.3       1 UNK         0.0000 
     66 N66        17.7842  -22.3925    5.5399 N.pl3     1 UNK         0.0000 
     67 C67        18.3697  -21.7953    6.5907 C.cat     1 UNK         0.0000 
     68 N68        18.8178  -22.5433    7.6002 N.pl3     1 UNK         0.0000 
     69 N69        18.5101  -20.4746    6.6305 N.pl3     1 UNK         0.0000 
     70 H70        18.1764  -19.8968    5.8709 H         1 UNK         0.0000 
     71 H71        18.9559  -19.9821    7.3958 H         1 UNK         0.0000 
     72 N72        13.7377  -20.9625    1.3870 N.am      1 UNK         0.0000 
     73 C73        12.6973  -20.1041    1.3824 C.2       1 UNK         0.0000 
     74 O74        12.3566  -19.5663    2.4406 O.2       1 UNK         0.0000 
     75 C75        12.0375  -19.9166    0.0001 C.ar      1 UNK         0.0000 
     76 C76        11.0935  -18.8792   -0.2837 C.ar      1 UNK         0.0000 
     77 O77        10.7896  -17.9976    0.5900 O.co2     1 UNK         0.0000 
     78 C78        10.4439  -18.8394   -1.5552 C.ar      1 UNK         0.0000 
     79 C79        10.7756  -19.7749   -2.5313 C.ar      1 UNK         0.0000 
     80 C80        11.7139  -20.7638   -2.2893 C.ar      1 UNK         0.0000 
     81 C81        12.3256  -20.8429   -1.0366 C.ar      1 UNK         0.0000 
     82 H82         8.7882  -11.8093   -3.1516 H         1 UNK         0.0000 
     83 H83         6.5342  -12.7612   -3.4904 H         1 UNK         0.0000 
     84 H84         5.8785  -14.8496   -2.3568 H         1 UNK         0.0000 
     85 H85        11.4782  -11.4549   -0.1492 H         1 UNK         0.0000 
     86 H86        11.3039   -9.1526    0.7052 H         1 UNK         0.0000 
     87 H87        10.0695   -9.9380    1.6205 H         1 UNK         0.0000 
     88 H88         9.6790   -7.3831   -0.0550 H         1 UNK         0.0000 
     89 H89         8.3796   -8.1687    0.8058 H         1 UNK         0.0000 
     90 H90        10.7695   -6.9019    2.1994 H         1 UNK         0.0000 
     91 H91         9.4815   -7.8264    2.9718 H         1 UNK         0.0000 
     92 H92         7.8563   -6.3180    2.2249 H         1 UNK         0.0000 
     93 H93         7.1602   -4.1116    1.9928 H         1 UNK         0.0000 
     94 H94         8.3096   -2.8526    1.8332 H         1 UNK         0.0000 
     95 H95         6.4499  -10.4751   -0.8545 H         1 UNK         0.0000 
     96 H96         7.7526  -12.7127    0.1354 H         1 UNK         0.0000 
     97 H97         6.2297  -12.0843    0.5899 H         1 UNK         0.0000 
     98 H98         8.6984  -13.2465    1.8802 H         1 UNK         0.0000 
     99 H99         8.3745  -11.6929    4.4552 H         1 UNK         0.0000 
    100 H100        9.8100  -12.6794    4.1100 H         1 UNK         0.0000 
    101 H101        8.7039  -14.9072    2.7653 H         1 UNK         0.0000 
    102 H102        5.2000  -16.6079    3.1544 H         1 UNK         0.0000 
    103 H103        5.4155  -15.1711    4.1170 H         1 UNK         0.0000 
    104 H104        5.9859  -15.3801    1.3134 H         1 UNK         0.0000 
    105 H105        5.5321  -18.9670    2.1152 H         1 UNK         0.0000 
    106 H106        6.2575  -18.5651    3.6517 H         1 UNK         0.0000 
    107 H107        7.0370  -20.9124    1.8798 H         1 UNK         0.0000 
    108 H108        6.2060  -20.9804    3.4025 H         1 UNK         0.0000 
    109 H109        8.2600  -19.9312    4.4915 H         1 UNK         0.0000 
    110 H110        9.0945  -20.0986    2.9729 H         1 UNK         0.0000 
    111 H111       10.7347  -21.9385    4.3832 H         1 UNK         0.0000 
    112 H112       11.1099  -22.9250    7.8562 H         1 UNK         0.0000 
    113 H113       11.5488  -21.3175    7.2812 H         1 UNK         0.0000 
    114 H114       12.3919  -22.3578    5.1841 H         1 UNK         0.0000 
    115 H115       12.5843  -25.1104    3.9707 H         1 UNK         0.0000 
    116 H116       13.9626  -25.4366    5.0062 H         1 UNK         0.0000 
    117 H117       15.0415  -23.6279    4.0752 H         1 UNK         0.0000 
    118 H118       14.2634  -19.8914    3.9125 H         1 UNK         0.0000 
    119 H119       15.6654  -19.8524    2.8943 H         1 UNK         0.0000 
    120 H120       15.2414  -21.6159    5.4204 H         1 UNK         0.0000 
    121 H121       16.1007  -20.1220    5.2711 H         1 UNK         0.0000 
    122 H122       17.0436  -22.4515    3.5373 H         1 UNK         0.0000 
    123 H123       17.8929  -20.9925    4.0106 H         1 UNK         0.0000 
    124 H124       17.7202  -23.4042    5.5163 H         1 UNK         0.0000 
    125 H125       18.7118  -23.5498    7.6220 H         1 UNK         0.0000 
    126 H126       19.2937  -22.1379    8.3931 H         1 UNK         0.0000 
    127 H127       13.8315  -21.3908    0.4851 H         1 UNK         0.0000 
    128 H128       10.2590  -19.7486   -3.4816 H         1 UNK         0.0000 
    129 H129       11.9320  -21.4805   -3.0624 H         1 UNK         0.0000 
    130 H130       13.0035  -21.6692   -0.8817 H         1 UNK         0.0000 
    131 Fe131       9.0567  -17.0966   -0.1047 Fe        1 UNK         0.0000 
    132 O132        9.5250  -17.9958   -1.8429 O.co2     1 UNK         0.0000 
@<TRIPOS>BOND
     1    1    2 ar   
     2    1    8 ar   
     3    1   82 1    
     4    2    3 ar   
     5    2   83 1    
     6    3    4 ar   
     7    3   84 1    
     8    4    5 1    
     9    4    6 ar   
    10    5  131 nc   
    11    6    7 1    
    12    6    8 ar   
    13    7  131 nc   
    14    8    9 1    
    15    9   10 2    
    16    9   11 am   BACKBONE|DICT|INTERRES
    17   11   85 1    
    18   11   12 1    
    19   12   14 1    
    20   12   23 1    
    21   12   13 1    
    22   14   15 1    
    23   14   86 1    
    24   14   87 1    
    25   15   16 1    
    26   15   88 1    
    27   15   89 1    
    28   16   17 1    
    29   16   90 1    
    30   16   91 1    
    31   17   18 ar   
    32   17   92 1    
    33   18   19 ar   
    34   18   20 ar   
    35   19   93 1    
    36   19   94 1    
    37   20   21 1    
    38   20   22 1    
    39   23   24 2    
    40   23   25 am   BACKBONE|DICT|INTERRES
    41   25   26 1    
    42   25   95 1    
    43   26   27 1    
    44   26   96 1    
    45   26   97 1    
    46   27   28 2    
    47   27   29 am   BACKBONE|DICT|INTERRES
    48   29   30 1    
    49   29   98 1    
    50   30   31 1    
    51   30   99 1    
    52   30  100 1    
    53   31   32 2    
    54   31   33 am   BACKBONE|DICT|INTERRES
    55   33   34 1    
    56   33  101 1    
    57   34   35 1    
    58   34   36 1    
    59   34   38 1    
    60   36   37 1    
    61   36  102 1    
    62   36  103 1    
    63   37  104 1    
    64   38   39 2    
    65   38   40 am   BACKBONE|DICT|INTERRES
    66   39  131 nc   
    67   40   41 1    
    68   40   42 1    
    69   41  131 nc   
    70   42   43 1    
    71   42  105 1    
    72   42  106 1    
    73   43   44 1    
    74   43  107 1    
    75   43  108 1    
    76   44   45 1    
    77   44  109 1    
    78   44  110 1    
    79   45   46 1    
    80   45   47 1    
    81   45   50 1    
    82   47   48 1    
    83   47   49 2    
    84   50   51 am   BACKBONE|DICT|INTERRES
    85   50  111 1    
    86   51   52 2    
    87   51   53 1    
    88   53   54 1    
    89   53  112 1    
    90   53  113 1    
    91   54   55 am   BACKBONE|DICT|INTERRES
    92   54  114 1    
    93   55   56 2    
    94   55   57 1    
    95   57   58 1    
    96   57  115 1    
    97   57  116 1    
    98   58   59 am   BACKBONE|DICT|INTERRES
    99   58  117 1    
   100   59   60 2    
   101   59   61 1    
   102   61   62 1    
   103   61   63 1    
   104   61   72 1    
   105   63   64 1    
   106   63  118 1    
   107   63  119 1    
   108   64   65 1    
   109   64  120 1    
   110   64  121 1    
   111   65   66 1    
   112   65  122 1    
   113   65  123 1    
   114   66   67 ar   
   115   66  124 1    
   116   67   68 ar   
   117   67   69 ar   
   118   68  125 1    
   119   68  126 1    
   120   69   70 1    
   121   69   71 1    
   122   72   73 am   BACKBONE|DICT|INTERRES
   123   72  127 1    
   124   73   74 2    
   125   73   75 1    
   126   75   76 ar   
   127   75   81 ar   
   128   76   77 1    
   129   76   78 ar   
   130   77  131 nc   
   131   78   79 ar   
   132   78  132 1    
   133   79   80 ar   
   134   79  128 1    
   135   80   81 ar   
   136   80  129 1    
   137   81  130 1    
   138  131  132 nc   
@<TRIPOS>SUBSTRUCTURE
     1 UNK         1 GROUP             0       ****    0 ROOT    
