@<TRIPOS>MOLECULE
179_A3_c1
84   90    1
SMALL
USER_CHARGES


@<TRIPOS>ATOM
      1 Fe1        -0.5075    0.2947   -1.1556 Fe        1 UNK         0.0000 
      2 O2          1.3450    0.8459   -2.0954 O.co2     1 UNK         0.0000 
      3 N3          1.4910    2.1559   -1.9075 N.am      1 UNK         0.0000 
      4 C4          2.8494    2.7107   -1.7653 C.3       1 UNK         0.0000 
      5 C5          2.8855    4.1121   -1.1154 C.3       1 UNK         0.0000 
      6 C6          1.6509    4.9461   -1.4511 C.3       1 UNK         0.0000 
      7 C7          0.3541    4.1993   -1.0836 C.3       1 UNK         0.0000 
      8 H8         -0.4610    4.7155   -1.5835 H         1 UNK         0.0000 
      9 C9          0.3009    2.8057   -1.7486 C.2       1 UNK         0.0000 
     10 O10        -0.7235    2.1397   -1.8475 O.co2     1 UNK         0.0000 
     11 N11        -0.0562    4.1658    0.3528 N.am      1 UNK         0.0000 
     12 C12         0.4519    3.3710    1.3278 C.2       1 UNK         0.0000 
     13 O13         1.2865    2.4970    1.1134 O.2       1 UNK         0.0000 
     14 C14         0.1081    3.6583    2.8155 C.3       1 UNK         0.0000 
     15 H15         0.8357    3.0891    3.3962 H         1 UNK         0.0000 
     16 N16         0.5647    5.0828    3.0929 N.4       1 UNK         0.0000 
     17 H17         0.6419    5.1603    4.0964 H         1 UNK         0.0000 
     18 H18         1.5071    5.1687    2.7201 H         1 UNK         0.0000 
     19 C19        -0.2814    6.2758    2.5954 C.3       1 UNK         0.0000 
     20 C20        -1.3063    3.2676    3.3484 C.3       1 UNK         0.0000 
     21 C21        -1.4479    1.8118    3.8857 C.3       1 UNK         0.0000 
     22 C22        -2.0423    0.7647    2.9105 C.3       1 UNK         0.0000 
     23 N23        -1.2198    0.4779    1.7292 N.am      1 UNK         0.0000 
     24 O24        -1.6900    0.8785    0.5511 O.co2     1 UNK         0.0000 
     25 C25        -0.1036   -0.2772    1.7069 C.2       1 UNK         0.0000 
     26 O26         0.3710   -0.4023    0.5721 O.co2     1 UNK         0.0000 
     27 C27         0.5141   -0.9859    2.9118 C.3       1 UNK         0.0000 
     28 C28         0.8437   -2.4334    2.5100 C.3       1 UNK         0.0000 
     29 N29         1.1662   -3.3503    3.5909 N.am      1 UNK         0.0000 
     30 C30         1.6263   -4.6084    3.4407 C.2       1 UNK         0.0000 
     31 O31         1.7879   -5.3126    4.4316 O.2       1 UNK         0.0000 
     32 C32         1.9316   -5.1924    2.0287 C.3       1 UNK         0.0000 
     33 H33         2.7572   -4.5902    1.6531 H         1 UNK         0.0000 
     34 C34         2.3601   -6.6758    2.0949 C.3       1 UNK         0.0000 
     35 N35         0.7612   -5.0756    1.1505 N.am      1 UNK         0.0000 
     36 C36         0.6303   -4.8750   -0.1756 C.2       1 UNK         0.0000 
     37 O37        -0.5025   -4.6895   -0.6065 O.2       1 UNK         0.0000 
     38 C38         1.7979   -4.8472   -1.2290 C.3       1 UNK         0.0000 
     39 H39         1.5380   -5.6430   -1.9302 H         1 UNK         0.0000 
     40 N40         3.1425   -5.2064   -0.6940 N.3       1 UNK         0.0000 
     41 C41         1.8432   -3.5206   -2.0359 C.3       1 UNK         0.0000 
     42 O42         0.7069   -3.2941   -2.8776 O.3       1 UNK         0.0000 
     43 C43        -0.1095   -2.2460   -2.6310 C.2       1 UNK         0.0000 
     44 O44         0.0050   -1.4732   -1.6590 O.co2     1 UNK         0.0000 
     45 C45        -1.1781   -1.9141   -3.6293 C.ar      1 UNK         0.0000 
     46 C46        -2.0782   -0.8447   -3.3695 C.ar      1 UNK         0.0000 
     47 O47        -2.0365   -0.1763   -2.2836 O.co2     1 UNK         0.0000 
     48 C48        -3.0310   -0.4872   -4.3283 C.ar      1 UNK         0.0000 
     49 C49        -3.0692   -1.1439   -5.5572 C.ar      1 UNK         0.0000 
     50 C50        -2.1872   -2.1921   -5.8167 C.ar      1 UNK         0.0000 
     51 C51        -1.2582   -2.5886   -4.8542 C.ar      1 UNK         0.0000 
     52 H52         3.4463    2.0266   -1.1545 H         1 UNK         0.0000 
     53 H53         3.3224    2.7066   -2.7522 H         1 UNK         0.0000 
     54 H54         3.8056    4.6170   -1.4091 H         1 UNK         0.0000 
     55 H55         2.9490    4.0022   -0.0354 H         1 UNK         0.0000 
     56 H56         1.7012    5.9064   -0.9426 H         1 UNK         0.0000 
     57 H57         1.6577    5.1697   -2.5259 H         1 UNK         0.0000 
     58 H58        -0.9521    4.5966    0.5441 H         1 UNK         0.0000 
     59 H59        -1.3367    6.0765    2.7975 H         1 UNK         0.0000 
     60 H60         0.0764    7.1442    3.1543 H         1 UNK         0.0000 
     61 H61        -0.0871    6.4173    1.5302 H         1 UNK         0.0000 
     62 H62        -1.5265    3.9273    4.1907 H         1 UNK         0.0000 
     63 H63        -2.0913    3.4828    2.6110 H         1 UNK         0.0000 
     64 H64        -2.1348    1.8441    4.7316 H         1 UNK         0.0000 
     65 H65        -0.5170    1.4420    4.3204 H         1 UNK         0.0000 
     66 H66        -3.0119    1.1403    2.5771 H         1 UNK         0.0000 
     67 H67        -2.2758   -0.1586    3.4497 H         1 UNK         0.0000 
     68 H68        -0.1411   -0.9655    3.7813 H         1 UNK         0.0000 
     69 H69         1.4076   -0.4652    3.2533 H         1 UNK         0.0000 
     70 H70         1.5969   -2.4368    1.7170 H         1 UNK         0.0000 
     71 H71        -0.0769   -2.8479    2.0885 H         1 UNK         0.0000 
     72 H72         1.0133   -3.0481    4.5451 H         1 UNK         0.0000 
     73 H73         1.5850   -7.2926    2.5578 H         1 UNK         0.0000 
     74 H74         3.2723   -6.7933    2.6828 H         1 UNK         0.0000 
     75 H75         2.5541   -7.0826    1.1026 H         1 UNK         0.0000 
     76 H76        -0.1129   -5.1425    1.6487 H         1 UNK         0.0000 
     77 H77         3.6466   -4.3944   -0.3697 H         1 UNK         0.0000 
     78 H78         3.7309   -5.6084   -1.4123 H         1 UNK         0.0000 
     79 H79         2.0671   -2.6907   -1.3527 H         1 UNK         0.0000 
     80 H80         2.6989   -3.5565   -2.7101 H         1 UNK         0.0000 
     81 H81        -3.7321    0.3128   -4.1213 H         1 UNK         0.0000 
     82 H82        -3.7815   -0.8313   -6.3091 H         1 UNK         0.0000 
     83 H83        -2.2136   -2.6744   -6.7761 H         1 UNK         0.0000 
     84 H84        -0.5809   -3.3969   -5.0998 H         1 UNK         0.0000 
@<TRIPOS>BOND
     1    1    2 nc   
     2    1   10 nc   
     3    1   24 nc   
     4    1   26 nc   
     5    1   44 nc   
     6    1   47 nc   
     7    2    3 1    
     8    3    9 am   BACKBONE|DICT|INTERRES
     9    3    4 1    
    10    4   52 1    
    11    4    5 1    
    12    4   53 1    
    13    5   55 1    
    14    5    6 1    
    15    5   54 1    
    16    6    7 1    
    17    6   56 1    
    18    6   57 1    
    19    7    8 1    
    20    7   11 1    
    21    7    9 1    
    22    9   10 2    
    23   11   58 1    
    24   11   12 am   BACKBONE|DICT|INTERRES
    25   12   14 1    
    26   12   13 2    
    27   14   16 1    
    28   14   15 1    
    29   14   20 1    
    30   16   17 1    
    31   16   18 1    
    32   16   19 1    
    33   19   59 1    
    34   19   60 1    
    35   19   61 1    
    36   20   21 1    
    37   20   62 1    
    38   20   63 1    
    39   21   65 1    
    40   21   64 1    
    41   21   22 1    
    42   22   67 1    
    43   22   23 1    
    44   22   66 1    
    45   23   24 1    
    46   23   25 am   BACKBONE|DICT|INTERRES
    47   25   26 2    
    48   25   27 1    
    49   27   69 1    
    50   27   68 1    
    51   27   28 1    
    52   28   29 1    
    53   28   70 1    
    54   28   71 1    
    55   29   72 1    
    56   29   30 am   BACKBONE|DICT|INTERRES
    57   30   31 2    
    58   30   32 1    
    59   32   33 1    
    60   32   34 1    
    61   32   35 1    
    62   34   73 1    
    63   34   74 1    
    64   34   75 1    
    65   35   76 1    
    66   35   36 am   BACKBONE|DICT|INTERRES
    67   36   37 2    
    68   36   38 1    
    69   38   39 1    
    70   38   40 1    
    71   38   41 1    
    72   40   77 1    
    73   40   78 1    
    74   41   79 1    
    75   41   42 1    
    76   41   80 1    
    77   42   43 1    
    78   43   45 1    
    79   43   44 2    
    80   45   46 ar   
    81   45   51 ar   
    82   46   47 1    
    83   46   48 ar   
    84   48   81 1    
    85   48   49 ar   
    86   49   50 ar   
    87   49   82 1    
    88   50   51 ar   
    89   50   83 1    
    90   51   84 1    
@<TRIPOS>SUBSTRUCTURE
     1 UNK         1 GROUP             0       ****    0 ROOT    
