@<TRIPOS>MOLECULE
024_r2_c1
49   56    1
SMALL
USER_CHARGES


@<TRIPOS>ATOM
      1 Fe1         0.0000    0.0000    0.0000 Fe        1 UNK         0.0000 
      2 O2         -0.1051   -1.8682   -0.0892 O.co2     1 UNK         0.0000 
      3 C3          0.8321   -2.7163    0.4363 C.ar      1 UNK         0.0000 
      4 C4          0.4700   -4.0591    0.6391 C.ar      1 UNK         0.0000 
      5 C5          1.3643   -4.9596    1.2058 C.ar      1 UNK         0.0000 
      6 C6          2.6287   -4.5177    1.5786 C.ar      1 UNK         0.0000 
      7 N7          2.9830   -3.2229    1.3825 N.ar      1 UNK         0.0000 
      8 C8          2.1532   -2.3009    0.8172 C.ar      1 UNK         0.0000 
      9 C9          2.7020   -0.9171    0.6647 C.2       1 UNK         0.0000 
     10 N10         2.1000    0.0000    0.0000 N.pl3     1 UNK         0.0000 
     11 S11         4.2283   -0.3786    1.4501 S.3       1 UNK         0.0000 
     12 C12         3.5607    1.3158    1.3109 C.3       1 UNK         0.0000 
     13 C13         2.6867    1.3114    0.0460 C.3       1 UNK         0.0000 
     14 C14         1.5655    2.3238    0.1216 C.2       1 UNK         0.0000 
     15 O15         0.2793    1.8682    0.0892 O.co2     1 UNK         0.0000 
     16 O16         1.7933    3.5202    0.2073 O.co2     1 UNK         0.0000 
     17 C17         3.5278    1.5309   -1.2210 C.3       1 UNK         0.0000 
     18 H18        -0.5179   -4.4073    0.3618 H         1 UNK         0.0000 
     19 H19         1.0748   -5.9919    1.3603 H         1 UNK         0.0000 
     20 H20         3.3301   -5.2076    2.0301 H         1 UNK         0.0000 
     21 H21         4.3349    2.1114    1.2795 H         1 UNK         0.0000 
     22 H22         2.9413    1.4648    2.2215 H         1 UNK         0.0000 
     23 H23         4.3265    0.7626   -1.3014 H         1 UNK         0.0000 
     24 H24         2.8862    1.4643   -2.1256 H         1 UNK         0.0000 
     25 H25         4.0080    2.5328   -1.1977 H         1 UNK         0.0000 
     26 O26         0.1051    0.0892    1.8682 O.co2     1 UNK         0.0000 
     27 C27        -0.8322   -0.4367    2.7158 C.ar      1 UNK         0.0000 
     28 C28        -0.4714   -0.6389    4.0588 C.ar      1 UNK         0.0000 
     29 C29        -1.3659   -1.2067    4.9589 C.ar      1 UNK         0.0000 
     30 C30        -2.6291   -1.5821    4.5165 C.ar      1 UNK         0.0000 
     31 N31        -2.9836   -1.3841    3.2212 N.ar      1 UNK         0.0000 
     32 C32        -2.1526   -0.8188    2.3006 C.ar      1 UNK         0.0000 
     33 C33        -2.7019   -0.6653    0.9165 C.2       1 UNK         0.0000 
     34 N34        -2.1000    0.0000    0.0000 N.pl3     1 UNK         0.0000 
     35 S35        -4.2289   -1.4498    0.3776 S.3       1 UNK         0.0000 
     36 C36        -3.5607   -1.3107   -1.3163 C.3       1 UNK         0.0000 
     37 C37        -2.6866   -0.0456   -1.3116 C.3       1 UNK         0.0000 
     38 C38        -1.5655   -0.1217   -2.3239 C.2       1 UNK         0.0000 
     39 O39        -0.2793   -0.0892   -1.8682 O.co2     1 UNK         0.0000 
     40 O40        -1.7932   -0.2077   -3.5204 O.co2     1 UNK         0.0000 
     41 C41        -3.5273    1.2215   -1.5311 C.3       1 UNK         0.0000 
     42 H42         0.5163   -0.3620    4.4071 H         1 UNK         0.0000 
     43 H43        -1.0774   -1.3617    5.9906 H         1 UNK         0.0000 
     44 H44        -3.3319   -2.0320    5.2043 H         1 UNK         0.0000 
     45 H45        -4.3347   -1.2795   -2.1122 H         1 UNK         0.0000 
     46 H46        -2.9414   -2.2214   -1.4649 H         1 UNK         0.0000 
     47 H47        -4.3264    1.3017   -0.7634 H         1 UNK         0.0000 
     48 H48        -2.8858    2.1262   -1.4644 H         1 UNK         0.0000 
     49 H49        -4.0071    1.1983   -2.5331 H         1 UNK         0.0000 
@<TRIPOS>BOND
     1    1    2 nc   
     2    1   10 nc   
     3    1   15 nc   
     4    1   26 nc   
     5    1   34 nc   
     6    1   39 nc   
     7    2    3 1    
     8    3    4 ar   
     9    3    8 ar   
    10    4    5 ar   
    11    4   18 1    
    12    5   19 1    
    13    5    6 ar   
    14    6   20 1    
    15    6    7 ar   
    16    7    8 ar   
    17    8    9 1    
    18    9   11 1    
    19    9   10 2    
    20   10   13 1    
    21   11   12 1    
    22   12   22 1    
    23   12   13 1    
    24   12   21 1    
    25   13   14 1    
    26   13   17 1    
    27   14   16 2    
    28   14   15 1    
    29   17   25 1    
    30   17   23 1    
    31   17   24 1    
    32   26   27 1    
    33   27   28 ar   
    34   27   32 ar   
    35   28   42 1    
    36   28   29 ar   
    37   29   43 1    
    38   29   30 ar   
    39   30   44 1    
    40   30   31 ar   
    41   31   32 ar   
    42   32   33 1    
    43   33   34 2    
    44   33   35 1    
    45   34   37 1    
    46   35   36 1    
    47   36   37 1    
    48   36   45 1    
    49   36   46 1    
    50   37   38 1    
    51   37   41 1    
    52   38   39 1    
    53   38   40 2    
    54   41   48 1    
    55   41   47 1    
    56   41   49 1    
@<TRIPOS>SUBSTRUCTURE
     1 UNK         1 GROUP             0       ****    0 ROOT    
