@<TRIPOS>MOLECULE
016_r3_c1
114   118    1
SMALL
USER_CHARGES


@<TRIPOS>ATOM
      1 Fe1         0.2424    1.9732   -0.0499 Fe        1 UNK         0.0000 
      2 C2          1.0861  -11.1447   -1.2311 C.3       1 UNK         0.0000 
      3 C3          0.9969   -9.6219   -1.1000 C.3       1 UNK         0.0000 
      4 C4          2.0287   -8.8578   -1.9727 C.3       1 UNK         0.0000 
      5 H5          3.0502   -9.1981   -1.6917 H         1 UNK         0.0000 
      6 C6          1.8227   -9.1499   -3.4704 C.3       1 UNK         0.0000 
      7 C7          1.9597   -7.3219   -1.7566 C.3       1 UNK         0.0000 
      8 C8          2.2270   -6.8868   -0.3024 C.3       1 UNK         0.0000 
      9 C9          2.3277   -5.3619   -0.1090 C.3       1 UNK         0.0000 
     10 C10         1.0647   -4.6111   -0.5498 C.3       1 UNK         0.0000 
     11 C11         1.1105   -3.1291   -0.1442 C.3       1 UNK         0.0000 
     12 C12        -0.1256   -2.4072   -0.6832 C.3       1 UNK         0.0000 
     13 C13        -0.2501   -0.9961   -0.1743 C.2       1 UNK         0.0000 
     14 O14         0.5416   -0.0873   -0.3867 O.co2     1 UNK         0.0000 
     15 N15        -1.3621   -0.5143    0.4463 N.4       1 UNK         0.0000 
     16 H16        -2.2418   -0.8970    0.0647 H         1 UNK         0.0000 
     17 O17        -1.1234    0.7443    0.1243 O.co2     1 UNK         0.0000 
     18 C18        -1.4228   -0.8145    1.8700 C.3       1 UNK         0.0000 
     19 C19        -2.3892    0.1305    2.6004 C.3       1 UNK         0.0000 
     20 C20        -2.6430   -0.3551    4.0294 C.3       1 UNK         0.0000 
     21 C21        -3.4344    0.6681    4.8656 C.3       1 UNK         0.0000 
     22 C22        -2.5905    1.3355    5.9699 C.3       1 UNK         0.0000 
     23 N23        -1.4668    2.1490    5.5261 N.am      1 UNK         0.0000 
     24 C24        -1.6090    3.3585    4.9182 C.2       1 UNK         0.0000 
     25 O25        -2.7193    3.7615    4.5999 O.2       1 UNK         0.0000 
     26 C26        -0.4130    4.2812    4.7514 C.3       1 UNK         0.0000 
     27 C27        -0.2036    4.7823    3.3195 C.3       1 UNK         0.0000 
     28 C28         0.3379    3.7362    2.3876 C.2       1 UNK         0.0000 
     29 O29        -0.2768    3.2604    1.4809 O.co2     1 UNK         0.0000 
     30 N30         1.5401    3.2937    2.2835 N.am      1 UNK         0.0000 
     31 O31         1.5156    2.5092    1.2031 O.co2     1 UNK         0.0000 
     32 C32         2.7264    3.7143    2.9926 C.3       1 UNK         0.0000 
     33 C33         3.5997    4.4374    1.9827 C.3       1 UNK         0.0000 
     34 C34         4.8468    5.0527    2.5990 C.3       1 UNK         0.0000 
     35 C35         5.7481    5.7022    1.5382 C.3       1 UNK         0.0000 
     36 C36         5.1395    6.9086    0.7848 C.3       1 UNK         0.0000 
     37 N37         4.0104    6.6015   -0.0910 N.am      1 UNK         0.0000 
     38 C38         4.0930    5.7658   -1.1661 C.2       1 UNK         0.0000 
     39 O39         5.1365    5.1770   -1.4091 O.2       1 UNK         0.0000 
     40 C40         2.9538    5.6461   -2.1587 C.3       1 UNK         0.0000 
     41 C41         2.5120    4.2037   -2.5028 C.3       1 UNK         0.0000 
     42 C42         1.2626    3.6695   -1.8283 C.2       1 UNK         0.0000 
     43 O43         1.0756    2.6126   -1.2233 O.co2     1 UNK         0.0000 
     44 N44         0.1015    4.0242   -1.9210 N.am      1 UNK         0.0000 
     45 O45        -0.2782    2.8003   -1.4978 O.co2     1 UNK         0.0000 
     46 C46        -0.5897    5.0148   -2.7225 C.3       1 UNK         0.0000 
     47 C47        -0.7432    4.5998   -4.1836 C.3       1 UNK         0.0000 
     48 C48        -1.4744    5.7145   -4.9401 C.3       1 UNK         0.0000 
     49 C49        -1.6281    5.3912   -6.4256 C.3       1 UNK         0.0000 
     50 C50        -2.3453    6.5409   -7.1460 C.3       1 UNK         0.0000 
     51 N51        -2.4877    6.2589   -8.5724 N.4       1 UNK         0.0000 
     52 H52        -2.9788    7.0604   -9.0301 H         1 UNK         0.0000 
     53 H53        -1.5448    6.1442   -9.0103 H         1 UNK         0.0000 
     54 H54        -3.0521    5.3896   -8.7115 H         1 UNK         0.0000 
     55 H55         0.8286  -11.4837   -2.2542 H         1 UNK         0.0000 
     56 H56         2.1079  -11.4940   -0.9702 H         1 UNK         0.0000 
     57 H57         0.3634  -11.6169   -0.5324 H         1 UNK         0.0000 
     58 H58        -0.0351   -9.2933   -1.3512 H         1 UNK         0.0000 
     59 H59         1.1846   -9.4018   -0.0300 H         1 UNK         0.0000 
     60 H60         0.8042   -8.8423   -3.7922 H         1 UNK         0.0000 
     61 H61         2.5696   -8.5954   -4.0774 H         1 UNK         0.0000 
     62 H62         1.9626  -10.2254   -3.6979 H         1 UNK         0.0000 
     63 H63         0.9618   -6.9530   -2.0781 H         1 UNK         0.0000 
     64 H64         2.7340   -6.8493   -2.4006 H         1 UNK         0.0000 
     65 H65         1.4148   -7.2587    0.3555 H         1 UNK         0.0000 
     66 H66         3.1880   -7.3307    0.0368 H         1 UNK         0.0000 
     67 H67         2.4980   -5.1833    0.9754 H         1 UNK         0.0000 
     68 H68         3.2019   -4.9626   -0.6682 H         1 UNK         0.0000 
     69 H69         0.9617   -4.6907   -1.6535 H         1 UNK         0.0000 
     70 H70         0.1738   -5.0749   -0.0708 H         1 UNK         0.0000 
     71 H71         1.1288   -3.0673    0.9664 H         1 UNK         0.0000 
     72 H72         2.0227   -2.6379   -0.5483 H         1 UNK         0.0000 
     73 H73        -1.0371   -2.9626   -0.3703 H         1 UNK         0.0000 
     74 H74        -0.0911   -2.3953   -1.7940 H         1 UNK         0.0000 
     75 H75        -1.6991   -1.8861    2.0054 H         1 UNK         0.0000 
     76 H76        -0.4286   -0.6551    2.3504 H         1 UNK         0.0000 
     77 H77        -1.9410    1.1485    2.6064 H         1 UNK         0.0000 
     78 H78        -3.3681    0.1769    2.0735 H         1 UNK         0.0000 
     79 H79        -3.2468   -1.2845    3.9235 H         1 UNK         0.0000 
     80 H80        -1.7060   -0.6370    4.5580 H         1 UNK         0.0000 
     81 H81        -4.2049    0.0956    5.4284 H         1 UNK         0.0000 
     82 H82        -3.9932    1.3900    4.2308 H         1 UNK         0.0000 
     83 H83        -3.2546    1.9572    6.6099 H         1 UNK         0.0000 
     84 H84        -2.1959    0.5204    6.6163 H         1 UNK         0.0000 
     85 H85        -0.5236    1.8494    5.8157 H         1 UNK         0.0000 
     86 H86        -0.6322    5.1735    5.3768 H         1 UNK         0.0000 
     87 H87         0.5212    3.8255    5.1432 H         1 UNK         0.0000 
     88 H88        -1.1767    5.1633    2.9394 H         1 UNK         0.0000 
     89 H89         0.5029    5.6397    3.3088 H         1 UNK         0.0000 
     90 H90         2.4675    4.4096    3.8187 H         1 UNK         0.0000 
     91 H91         3.2494    2.8330    3.4221 H         1 UNK         0.0000 
     92 H92         3.8901    3.7270    1.1767 H         1 UNK         0.0000 
     93 H93         2.9701    5.2415    1.5603 H         1 UNK         0.0000 
     94 H94         5.4319    4.2489    3.0976 H         1 UNK         0.0000 
     95 H95         4.5588    5.8043    3.3664 H         1 UNK         0.0000 
     96 H96         6.6479    6.0751    2.0743 H         1 UNK         0.0000 
     97 H97         6.0988    4.9296    0.8242 H         1 UNK         0.0000 
     98 H98         5.9421    7.3600    0.1622 H         1 UNK         0.0000 
     99 H99         4.8299    7.6718    1.5322 H         1 UNK         0.0000 
    100 H100        3.1263    7.1056    0.0777 H         1 UNK         0.0000 
    101 H101        2.0888    6.2970   -1.9183 H         1 UNK         0.0000 
    102 H102        3.4013    6.0574   -3.0904 H         1 UNK         0.0000 
    103 H103        3.3645    3.4974   -2.4178 H         1 UNK         0.0000 
    104 H104        2.2387    4.2100   -3.5770 H         1 UNK         0.0000 
    105 H105       -1.5960    5.1769   -2.2801 H         1 UNK         0.0000 
    106 H106       -0.0426    5.9788   -2.6590 H         1 UNK         0.0000 
    107 H107        0.2557    4.4441   -4.6385 H         1 UNK         0.0000 
    108 H108       -1.3202    3.6517   -4.2456 H         1 UNK         0.0000 
    109 H109       -0.8950    6.6598   -4.8394 H         1 UNK         0.0000 
    110 H110       -2.4809    5.8652   -4.4893 H         1 UNK         0.0000 
    111 H111       -0.6212    5.2469   -6.8752 H         1 UNK         0.0000 
    112 H112       -2.2136    4.4533   -6.5432 H         1 UNK         0.0000 
    113 H113       -3.3533    6.6895   -6.6978 H         1 UNK         0.0000 
    114 H114       -1.7633    7.4812   -7.0165 H         1 UNK         0.0000 
@<TRIPOS>BOND
     1    1   14 nc   
     2    1   17 nc   
     3    1   29 nc   
     4    1   31 nc   
     5    1   43 nc   
     6    1   45 nc   
     7    2    3 1    
     8    2   56 1    
     9    2   57 1    
    10    2   55 1    
    11    3   59 1    
    12    3    4 1    
    13    3   58 1    
    14    4    7 1    
    15    4    5 1    
    16    4    6 1    
    17    6   60 1    
    18    6   61 1    
    19    6   62 1    
    20    7    8 1    
    21    7   63 1    
    22    7   64 1    
    23    8    9 1    
    24    8   66 1    
    25    8   65 1    
    26    9   67 1    
    27    9   10 1    
    28    9   68 1    
    29   10   11 1    
    30   10   70 1    
    31   10   69 1    
    32   11   71 1    
    33   11   12 1    
    34   11   72 1    
    35   12   73 1    
    36   12   13 1    
    37   12   74 1    
    38   13   15 1    
    39   13   14 2    
    40   15   16 1    
    41   15   18 1    
    42   15   17 1    
    43   18   75 1    
    44   18   76 1    
    45   18   19 1    
    46   19   77 1    
    47   19   20 1    
    48   19   78 1    
    49   20   80 1    
    50   20   21 1    
    51   20   79 1    
    52   21   81 1    
    53   21   22 1    
    54   21   82 1    
    55   22   83 1    
    56   22   84 1    
    57   22   23 1    
    58   23   85 1    
    59   23   24 am   BACKBONE|DICT|INTERRES
    60   24   25 2    
    61   24   26 1    
    62   26   87 1    
    63   26   86 1    
    64   26   27 1    
    65   27   28 1    
    66   27   88 1    
    67   27   89 1    
    68   28   30 am   BACKBONE|DICT|INTERRES
    69   28   29 2    
    70   30   32 1    
    71   30   31 1    
    72   32   91 1    
    73   32   90 1    
    74   32   33 1    
    75   33   34 1    
    76   33   92 1    
    77   33   93 1    
    78   34   94 1    
    79   34   95 1    
    80   34   35 1    
    81   35   96 1    
    82   35   36 1    
    83   35   97 1    
    84   36   99 1    
    85   36   37 1    
    86   36   98 1    
    87   37  100 1    
    88   37   38 am   BACKBONE|DICT|INTERRES
    89   38   39 2    
    90   38   40 1    
    91   40  101 1    
    92   40   41 1    
    93   40  102 1    
    94   41  103 1    
    95   41   42 1    
    96   41  104 1    
    97   42   43 2    
    98   42   44 am   BACKBONE|DICT|INTERRES
    99   44   45 1    
   100   44   46 1    
   101   46  106 1    
   102   46  105 1    
   103   46   47 1    
   104   47   48 1    
   105   47  107 1    
   106   47  108 1    
   107   48  109 1    
   108   48  110 1    
   109   48   49 1    
   110   49   50 1    
   111   49  111 1    
   112   49  112 1    
   113   50  114 1    
   114   50  113 1    
   115   50   51 1    
   116   51   52 1    
   117   51   53 1    
   118   51   54 1    
@<TRIPOS>SUBSTRUCTURE
     1 UNK         1 GROUP             0       ****    0 ROOT    
