@<TRIPOS>MOLECULE
238_c1
111   118    1
SMALL
USER_CHARGES


@<TRIPOS>ATOM
      1 Fe1         0.0027    0.0362   -0.0199 Fe        1 UNK         0.0000 
      2 C2          3.3862   -1.7486   -2.9503 C.ar      1 UNK         0.0000 
      3 C3          2.6006   -2.8891   -2.8356 C.ar      1 UNK         0.0000 
      4 C4          1.6468   -2.9886   -1.8310 C.ar      1 UNK         0.0000 
      5 C5          1.4734   -1.9599   -0.9102 C.ar      1 UNK         0.0000 
      6 O6          0.5516   -2.1285   -0.0382 O.co2     1 UNK         0.0000 
      7 C7          2.3033   -0.8113   -1.0007 C.ar      1 UNK         0.0000 
      8 O8          2.1654    0.1163   -0.1514 O.co2     1 UNK         0.0000 
      9 C9          3.2518   -0.6731   -2.0476 C.ar      1 UNK         0.0000 
     10 C10         4.1030    0.5717   -2.3308 C.2       1 UNK         0.0000 
     11 O11         4.7990    0.6762   -3.3430 O.2       1 UNK         0.0000 
     12 O12         3.9681    1.6298   -1.4647 O.3       1 UNK         0.0000 
     13 C13         3.3631    2.8863   -1.8177 C.3       1 UNK         0.0000 
     14 H14         3.4877    3.5150   -0.9446 H         1 UNK         0.0000 
     15 C15         4.1459    3.5793   -2.9841 C.3       1 UNK         0.0000 
     16 C16         1.8127    2.7248   -2.0741 C.3       1 UNK         0.0000 
     17 H17         1.6677    1.6578   -2.2101 H         1 UNK         0.0000 
     18 N18         1.3555    3.3247   -3.3581 N.3       1 UNK         0.0000 
     19 C19         0.8283    3.1082   -0.8935 C.2       1 UNK         0.0000 
     20 O20         0.2218    2.2266   -0.2363 O.co2     1 UNK         0.0000 
     21 N21         0.4324    4.3924   -0.7405 N.am      1 UNK         0.0000 
     22 C22        -0.7461    4.6991    0.1059 C.3       1 UNK         0.0000 
     23 C23        -0.8716    6.1290    0.6632 C.3       1 UNK         0.0000 
     24 C24        -2.1648    6.2970    1.5044 C.3       1 UNK         0.0000 
     25 N25        -2.3143    7.6114    2.1479 N.am      1 UNK         0.0000 
     26 C26        -3.3088    8.4880    1.9530 C.2       1 UNK         0.0000 
     27 O27        -4.1777    8.2861    1.0995 O.2       1 UNK         0.0000 
     28 C28        -3.3127    9.7518    2.7987 C.ar      1 UNK         0.0000 
     29 C29        -2.4535    9.9747    3.9044 C.ar      1 UNK         0.0000 
     30 O30        -1.5256    9.0603    4.3466 O.3       1 UNK         0.0000 
     31 C31        -2.5184   11.1777    4.6195 C.ar      1 UNK         0.0000 
     32 O32        -1.6912   11.3907    5.6964 O.3       1 UNK         0.0000 
     33 C33        -3.4192   12.1710    4.2535 C.ar      1 UNK         0.0000 
     34 C34        -4.2700   11.9658    3.1770 C.ar      1 UNK         0.0000 
     35 C35        -4.2203   10.7715    2.4611 C.ar      1 UNK         0.0000 
     36 H36         4.1028   -1.6924   -3.7612 H         1 UNK         0.0000 
     37 H37         2.7134   -3.6928   -3.5454 H         1 UNK         0.0000 
     38 H38         1.0327   -3.8720   -1.7538 H         1 UNK         0.0000 
     39 H39         3.7435    4.5723   -3.1957 H         1 UNK         0.0000 
     40 H40         5.2115    3.6914   -2.7641 H         1 UNK         0.0000 
     41 H41         4.0622    3.0045   -3.9145 H         1 UNK         0.0000 
     42 H42         0.5015    2.8685   -3.6790 H         1 UNK         0.0000 
     43 H43         2.0252    3.0807   -4.0827 H         1 UNK         0.0000 
     44 H44         0.8291    5.1116   -1.3355 H         1 UNK         0.0000 
     45 H45        -1.6439    4.4506   -0.4596 H         1 UNK         0.0000 
     46 H46        -0.7723    4.0202    0.9639 H         1 UNK         0.0000 
     47 H47        -0.8838    6.8452   -0.1568 H         1 UNK         0.0000 
     48 H48        -0.0133    6.3578    1.2954 H         1 UNK         0.0000 
     49 H49        -2.2052    5.5411    2.2914 H         1 UNK         0.0000 
     50 H50        -3.0354    6.0524    0.8826 H         1 UNK         0.0000 
     51 H51        -1.7601    7.8409    2.9704 H         1 UNK         0.0000 
     52 H52        -1.1493    9.4342    5.1555 H         1 UNK         0.0000 
     53 H53        -1.8208   12.2530    6.0977 H         1 UNK         0.0000 
     54 H54        -3.4652   13.1007    4.8003 H         1 UNK         0.0000 
     55 H55        -4.9719   12.7320    2.8908 H         1 UNK         0.0000 
     56 H56        -4.8981   10.6457    1.6278 H         1 UNK         0.0000 
     57 C57        -3.3928    2.9411    1.7810 C.ar      1 UNK         0.0000 
     58 C58        -2.5996    2.8345    2.9169 C.ar      1 UNK         0.0000 
     59 C59        -1.6367    1.8382    3.0119 C.ar      1 UNK         0.0000 
     60 C60        -1.4624    0.9172    1.9839 C.ar      1 UNK         0.0000 
     61 O61        -0.5329    0.0527    2.1473 O.co2     1 UNK         0.0000 
     62 C62        -2.2987    1.0000    0.8396 C.ar      1 UNK         0.0000 
     63 O63        -2.1602    0.1514   -0.0886 O.co2     1 UNK         0.0000 
     64 C64        -3.2565    2.0387    0.7064 C.ar      1 UNK         0.0000 
     65 C65        -4.1195    2.3111   -0.5313 C.2       1 UNK         0.0000 
     66 O66        -4.8378    3.3089   -0.6256 O.2       1 UNK         0.0000 
     67 O67        -3.9725    1.4529   -1.5935 O.3       1 UNK         0.0000 
     68 C68        -3.3944    1.8247   -2.8560 C.3       1 UNK         0.0000 
     69 H69        -3.5330    0.9619   -3.4960 H         1 UNK         0.0000 
     70 C70        -4.1891    3.0038   -3.5138 C.3       1 UNK         0.0000 
     71 C71        -1.8401    2.0755   -2.7236 C.3       1 UNK         0.0000 
     72 H72        -1.6775    2.2423   -1.6620 H         1 UNK         0.0000 
     73 N73        -1.3905    3.3289   -3.3909 N.3       1 UNK         0.0000 
     74 C74        -0.8661    0.8809   -3.0884 C.2       1 UNK         0.0000 
     75 O75        -0.2289    0.2521   -2.2115 O.co2     1 UNK         0.0000 
     76 N76        -0.4983    0.6966   -4.3804 N.am      1 UNK         0.0000 
     77 C77         0.6782   -0.1515   -4.6809 C.3       1 UNK         0.0000 
     78 C78         0.8466   -0.6511   -6.1274 C.3       1 UNK         0.0000 
     79 C79         2.1501   -1.4754   -6.2892 C.3       1 UNK         0.0000 
     80 N80         2.3103   -2.1189   -7.6021 N.am      1 UNK         0.0000 
     81 C81         3.3256   -1.9404   -8.4589 C.2       1 UNK         0.0000 
     82 O82         4.2067   -1.1035   -8.2395 O.2       1 UNK         0.0000 
     83 C83         3.3351   -2.7810   -9.7262 C.ar      1 UNK         0.0000 
     84 C84         2.4908   -3.8986   -9.9396 C.ar      1 UNK         0.0000 
     85 O85         1.5828   -4.3549   -9.0138 O.3       1 UNK         0.0000 
     86 C86         2.5554   -4.6105  -11.1468 C.ar      1 UNK         0.0000 
     87 O87         1.7439   -5.7005  -11.3501 O.3       1 UNK         0.0000 
     88 C88         3.4405   -4.2292  -12.1476 C.ar      1 UNK         0.0000 
     89 C89         4.2780   -3.1409  -11.9487 C.ar      1 UNK         0.0000 
     90 C90         4.2278   -2.4281  -10.7513 C.ar      1 UNK         0.0000 
     91 H91        -4.1166    3.7454    1.7276 H         1 UNK         0.0000 
     92 H92        -2.7149    3.5435    3.7205 H         1 UNK         0.0000 
     93 H93        -1.0171    1.7672    3.8918 H         1 UNK         0.0000 
     94 H94        -3.8251    3.2164   -4.5217 H         1 UNK         0.0000 
     95 H95        -5.2606    2.7963   -3.5840 H         1 UNK         0.0000 
     96 H96        -4.0696    3.9294   -2.9375 H         1 UNK         0.0000 
     97 H97        -0.4984    3.6458   -3.0091 H         1 UNK         0.0000 
     98 H98        -2.0262    4.0805   -3.1413 H         1 UNK         0.0000 
     99 H99        -0.9174    1.2629   -5.1085 H         1 UNK         0.0000 
    100 H100        1.5745    0.3946   -4.3858 H         1 UNK         0.0000 
    101 H101        0.6698   -1.0324   -4.0309 H         1 UNK         0.0000 
    102 H102        0.8731    0.1961   -6.8105 H         1 UNK         0.0000 
    103 H103       -0.0005   -1.2772   -6.4064 H         1 UNK         0.0000 
    104 H104        2.1952   -2.2656   -5.5383 H         1 UNK         0.0000 
    105 H105        3.0134   -0.8450   -6.0387 H         1 UNK         0.0000 
    106 H106        1.7559   -2.9411   -7.8301 H         1 UNK         0.0000 
    107 H107        1.2275   -5.1818   -9.3677 H         1 UNK         0.0000 
    108 H108        1.8661   -6.0944  -12.2160 H         1 UNK         0.0000 
    109 H109        3.4861   -4.7733  -13.0792 H         1 UNK         0.0000 
    110 H110        4.9689   -2.8450  -12.7207 H         1 UNK         0.0000 
    111 H111        4.8956   -1.5854  -10.6306 H         1 UNK         0.0000 
@<TRIPOS>BOND
     1    1    6 nc   
     2    1    8 nc   
     3    1   20 nc   
     4    1   61 nc   
     5    1   63 nc   
     6    1   75 nc   
     7    2    3 ar   
     8    2    9 ar   
     9    2   36 1    
    10    3    4 ar   
    11    3   37 1    
    12    4   38 1    
    13    4    5 ar   
    14    5    6 1    
    15    5    7 ar   
    16    7    8 1    
    17    7    9 ar   
    18    9   10 1    
    19   10   12 1    
    20   10   11 2    
    21   12   13 1    
    22   13   14 1    
    23   13   15 1    
    24   13   16 1    
    25   15   40 1    
    26   15   39 1    
    27   15   41 1    
    28   16   17 1    
    29   16   19 1    
    30   16   18 1    
    31   18   42 1    
    32   18   43 1    
    33   19   21 am   BACKBONE|DICT|INTERRES
    34   19   20 2    
    35   21   22 1    
    36   21   44 1    
    37   22   23 1    
    38   22   46 1    
    39   22   45 1    
    40   23   48 1    
    41   23   24 1    
    42   23   47 1    
    43   24   25 1    
    44   24   49 1    
    45   24   50 1    
    46   25   51 1    
    47   25   26 am   BACKBONE|DICT|INTERRES
    48   26   28 1    
    49   26   27 2    
    50   28   29 ar   
    51   28   35 ar   
    52   29   30 1    
    53   29   31 ar   
    54   30   52 1    
    55   31   32 1    
    56   31   33 ar   
    57   32   53 1    
    58   33   54 1    
    59   33   34 ar   
    60   34   35 ar   
    61   34   55 1    
    62   35   56 1    
    63   57   58 ar   
    64   57   64 ar   
    65   57   91 1    
    66   58   59 ar   
    67   58   92 1    
    68   59   93 1    
    69   59   60 ar   
    70   60   61 1    
    71   60   62 ar   
    72   62   63 1    
    73   62   64 ar   
    74   64   65 1    
    75   65   66 2    
    76   65   67 1    
    77   67   68 1    
    78   68   69 1    
    79   68   71 1    
    80   68   70 1    
    81   70   96 1    
    82   70   94 1    
    83   70   95 1    
    84   71   72 1    
    85   71   73 1    
    86   71   74 1    
    87   73   97 1    
    88   73   98 1    
    89   74   75 2    
    90   74   76 am   BACKBONE|DICT|INTERRES
    91   76   77 1    
    92   76   99 1    
    93   77  100 1    
    94   77  101 1    
    95   77   78 1    
    96   78   79 1    
    97   78  102 1    
    98   78  103 1    
    99   79  105 1    
   100   79  104 1    
   101   79   80 1    
   102   80   81 am   BACKBONE|DICT|INTERRES
   103   80  106 1    
   104   81   82 2    
   105   81   83 1    
   106   83   84 ar   
   107   83   90 ar   
   108   84   85 1    
   109   84   86 ar   
   110   85  107 1    
   111   86   87 1    
   112   86   88 ar   
   113   87  108 1    
   114   88   89 ar   
   115   88  109 1    
   116   89   90 ar   
   117   89  110 1    
   118   90  111 1    
@<TRIPOS>SUBSTRUCTURE
     1 UNK         1 GROUP             0       ****    0 ROOT    
