@<TRIPOS>MOLECULE
105_c1
112   117    1
SMALL
USER_CHARGES


@<TRIPOS>ATOM
      1 Fe1        -0.0509   -2.0122    1.3292 Fe        1 UNK         0.0000 
      2 O2          0.6509    1.3038   -2.7907 O.2       1 UNK         0.0000 
      3 C3          1.6417    1.7775   -2.2498 C.2       1 UNK         0.0000 
      4 C4          2.7250    0.8719   -1.6998 C.3       1 UNK         0.0000 
      5 C5          2.4294   -0.6338   -1.8334 C.3       1 UNK         0.0000 
      6 C6          1.2023   -0.9939   -1.0311 C.2       1 UNK         0.0000 
      7 O7          1.1222   -0.7404    0.1506 O.co2     1 UNK         0.0000 
      8 N8          0.0953   -1.5690   -1.4471 N.am      1 UNK         0.0000 
      9 O9         -0.7456   -1.6093   -0.4138 O.co2     1 UNK         0.0000 
     10 C10        -0.2127   -2.1126   -2.7600 C.3       1 UNK         0.0000 
     11 C11        -0.7350   -3.5597   -2.6538 C.3       1 UNK         0.0000 
     12 C12        -0.8184   -4.1867   -4.0525 C.3       1 UNK         0.0000 
     13 C13        -1.5065   -5.5615   -4.1648 C.3       1 UNK         0.0000 
     14 C14        -1.0039   -6.6704   -3.2223 C.3       1 UNK         0.0000 
     15 N15        -1.6665   -6.5860   -1.9322 N.am      1 UNK         0.0000 
     16 C16        -1.0388   -6.4915   -0.7301 C.2       1 UNK         0.0000 
     17 O17         0.1816   -6.4458   -0.6624 O.2       1 UNK         0.0000 
     18 C18        -1.8958   -6.4291    0.5186 C.3       1 UNK         0.0000 
     19 C19        -1.1493   -6.1716    1.8381 C.3       1 UNK         0.0000 
     20 C20        -0.4073   -4.8681    1.7585 C.2       1 UNK         0.0000 
     21 O21        -0.9181   -3.8350    1.3752 O.co2     1 UNK         0.0000 
     22 N22         0.8403   -4.6560    2.0729 N.am      1 UNK         0.0000 
     23 O23         1.1087   -3.3947    1.7607 O.co2     1 UNK         0.0000 
     24 C24         1.7852   -5.5091    2.7700 C.3       1 UNK         0.0000 
     25 C25         1.2818   -5.7547    4.2006 C.3       1 UNK         0.0000 
     26 C26         2.4287   -5.9651    5.2051 C.3       1 UNK         0.0000 
     27 C27         1.9340   -6.0254    6.6632 C.3       1 UNK         0.0000 
     28 C28         1.2498   -4.7347    7.1748 C.3       1 UNK         0.0000 
     29 N29         2.1711   -3.6067    7.2871 N.am      1 UNK         0.0000 
     30 C30         2.0461   -2.4044    6.6405 C.2       1 UNK         0.0000 
     31 O31         2.8321   -1.5075    6.9090 O.2       1 UNK         0.0000 
     32 C32         0.9988   -2.1662    5.5743 C.3       1 UNK         0.0000 
     33 C33         0.9462   -0.7502    4.9737 C.3       1 UNK         0.0000 
     34 C34         0.0454   -0.8067    3.7654 C.2       1 UNK         0.0000 
     35 O35         0.2185   -1.4623    2.7612 O.co2     1 UNK         0.0000 
     36 N36        -1.0120   -0.2662    3.4552 N.am      1 UNK         0.0000 
     37 O37        -1.0909   -1.0317    2.3414 O.co2     1 UNK         0.0000 
     38 C38        -1.8599    0.7793    3.9885 C.3       1 UNK         0.0000 
     39 C39        -1.0255    2.0502    4.2215 C.3       1 UNK         0.0000 
     40 C40        -1.8825    3.2526    4.6180 C.3       1 UNK         0.0000 
     41 C41        -1.0042    4.3771    5.1963 C.3       1 UNK         0.0000 
     42 C42        -1.8384    5.6210    5.5157 C.3       1 UNK         0.0000 
     43 N43        -2.1514    6.3579    4.3038 N.am      1 UNK         0.0000 
     44 C44        -1.2433    7.1918    3.7158 C.2       1 UNK         0.0000 
     45 O45        -0.1326    7.3452    4.2065 O.2       1 UNK         0.0000 
     46 C46        -1.6297    8.0161    2.5180 C.3       1 UNK         0.0000 
     47 C47        -1.6499    7.2085    1.2083 C.3       1 UNK         0.0000 
     48 C48        -0.2636    6.8237    0.7095 C.2       1 UNK         0.0000 
     49 O49         0.7212    7.0888    1.3871 O.2       1 UNK         0.0000 
     50 N50        -0.1043    6.2497   -0.5225 N.am      1 UNK         0.0000 
     51 O51        -1.1907    5.9809   -1.2679 O.3       1 UNK         0.0000 
     52 C52         1.2380    6.0167   -1.0589 C.3       1 UNK         0.0000 
     53 C53         1.2489    5.5107   -2.5165 C.3       1 UNK         0.0000 
     54 C54         0.8056    4.0495   -2.6943 C.3       1 UNK         0.0000 
     55 N55         1.7849    3.1259   -2.1449 N.am      1 UNK         0.0000 
     56 H56         2.8744    1.1121   -0.6242 H         1 UNK         0.0000 
     57 H57         3.6725    1.0975   -2.2345 H         1 UNK         0.0000 
     58 H58         3.2915   -1.1984   -1.4181 H         1 UNK         0.0000 
     59 H59         2.3443   -0.8896   -2.9055 H         1 UNK         0.0000 
     60 H60        -0.9995   -1.4936   -3.2423 H         1 UNK         0.0000 
     61 H61         0.6822   -2.0943   -3.4089 H         1 UNK         0.0000 
     62 H62        -1.7320   -3.5466   -2.1622 H         1 UNK         0.0000 
     63 H63        -0.0358   -4.1671   -2.0424 H         1 UNK         0.0000 
     64 H64         0.2230   -4.2803   -4.4328 H         1 UNK         0.0000 
     65 H65        -1.3689   -3.5026   -4.7360 H         1 UNK         0.0000 
     66 H66        -2.6080   -5.4613   -4.0477 H         1 UNK         0.0000 
     67 H67        -1.3237   -5.8901   -5.2117 H         1 UNK         0.0000 
     68 H68         0.1056   -6.6703   -3.1589 H         1 UNK         0.0000 
     69 H69        -1.3153   -7.6430   -3.6615 H         1 UNK         0.0000 
     70 H70        -2.6981   -6.6238   -1.9368 H         1 UNK         0.0000 
     71 H71        -2.6250   -5.5998    0.3814 H         1 UNK         0.0000 
     72 H72        -2.4737   -7.3741    0.6036 H         1 UNK         0.0000 
     73 H73        -0.4634   -7.0114    2.0751 H         1 UNK         0.0000 
     74 H74        -1.9100   -6.0974    2.6443 H         1 UNK         0.0000 
     75 H75         2.7320   -4.9288    2.8347 H         1 UNK         0.0000 
     76 H76         2.0049   -6.4515    2.2250 H         1 UNK         0.0000 
     77 H77         0.7427   -4.8512    4.5013 H         1 UNK         0.0000 
     78 H78         0.5376   -6.5779    4.2268 H         1 UNK         0.0000 
     79 H79         3.1585   -5.1293    5.1285 H         1 UNK         0.0000 
     80 H80         2.9541   -6.9111    4.9519 H         1 UNK         0.0000 
     81 H81         1.2113   -6.8663    6.7456 H         1 UNK         0.0000 
     82 H82         2.7958   -6.2533    7.3270 H         1 UNK         0.0000 
     83 H83         0.8579   -4.9417    8.1935 H         1 UNK         0.0000 
     84 H84         0.3609   -4.5032    6.5643 H         1 UNK         0.0000 
     85 H85         2.9489   -3.7150    7.9568 H         1 UNK         0.0000 
     86 H86        -0.0141   -2.3964    5.9692 H         1 UNK         0.0000 
     87 H87         1.2616   -2.8533    4.7538 H         1 UNK         0.0000 
     88 H88         1.9533   -0.4299    4.6307 H         1 UNK         0.0000 
     89 H89         0.5791   -0.0479    5.7476 H         1 UNK         0.0000 
     90 H90        -2.6776    0.9781    3.2629 H         1 UNK         0.0000 
     91 H91        -2.3051    0.4525    4.9529 H         1 UNK         0.0000 
     92 H92        -0.4478    2.3183    3.3094 H         1 UNK         0.0000 
     93 H93        -0.3084    1.8351    5.0371 H         1 UNK         0.0000 
     94 H94        -2.6028    2.9537    5.4118 H         1 UNK         0.0000 
     95 H95        -2.4557    3.5930    3.7279 H         1 UNK         0.0000 
     96 H96        -0.1663    4.6458    4.5167 H         1 UNK         0.0000 
     97 H97        -0.5682    3.9918    6.1445 H         1 UNK         0.0000 
     98 H98        -2.7707    5.3074    6.0355 H         1 UNK         0.0000 
     99 H99        -1.2961    6.2938    6.2153 H         1 UNK         0.0000 
    100 H100       -3.1137    6.3215    3.9372 H         1 UNK         0.0000 
    101 H101       -0.9189    8.8629    2.3868 H         1 UNK         0.0000 
    102 H102       -2.6258    8.4650    2.7197 H         1 UNK         0.0000 
    103 H103       -2.0880    7.8777    0.4372 H         1 UNK         0.0000 
    104 H104       -2.3019    6.3144    1.3059 H         1 UNK         0.0000 
    105 H105       -1.3669    6.8116   -1.7812 H         1 UNK         0.0000 
    106 H106        1.7650    6.9967   -1.0673 H         1 UNK         0.0000 
    107 H107        1.8092    5.3276   -0.4003 H         1 UNK         0.0000 
    108 H108        0.6062    6.1811   -3.1267 H         1 UNK         0.0000 
    109 H109        2.2811    5.5942   -2.9230 H         1 UNK         0.0000 
    110 H110        0.7272    3.8550   -3.7864 H         1 UNK         0.0000 
    111 H111       -0.1912    3.8781   -2.2367 H         1 UNK         0.0000 
    112 H112        2.6319    3.4948   -1.6851 H         1 UNK         0.0000 
@<TRIPOS>BOND
     1    1    7 nc   
     2    1    9 nc   
     3    1   21 nc   
     4    1   23 nc   
     5    1   35 nc   
     6    1   37 nc   
     7    2    3 2    
     8    3   55 am   BACKBONE|DICT|INTERRES
     9    3    4 1    
    10    4   56 1    
    11    4    5 1    
    12    4   57 1    
    13    5   58 1    
    14    5    6 1    
    15    5   59 1    
    16    6    7 2    
    17    6    8 am   BACKBONE|DICT|INTERRES
    18    8    9 1    
    19    8   10 1    
    20   10   11 1    
    21   10   60 1    
    22   10   61 1    
    23   11   62 1    
    24   11   63 1    
    25   11   12 1    
    26   12   13 1    
    27   12   64 1    
    28   12   65 1    
    29   13   66 1    
    30   13   14 1    
    31   13   67 1    
    32   14   68 1    
    33   14   15 1    
    34   14   69 1    
    35   15   16 am   BACKBONE|DICT|INTERRES
    36   15   70 1    
    37   16   17 2    
    38   16   18 1    
    39   18   72 1    
    40   18   19 1    
    41   18   71 1    
    42   19   73 1    
    43   19   74 1    
    44   19   20 1    
    45   20   21 2    
    46   20   22 am   BACKBONE|DICT|INTERRES
    47   22   24 1    
    48   22   23 1    
    49   24   75 1    
    50   24   25 1    
    51   24   76 1    
    52   25   78 1    
    53   25   77 1    
    54   25   26 1    
    55   26   27 1    
    56   26   79 1    
    57   26   80 1    
    58   27   81 1    
    59   27   28 1    
    60   27   82 1    
    61   28   29 1    
    62   28   83 1    
    63   28   84 1    
    64   29   85 1    
    65   29   30 am   BACKBONE|DICT|INTERRES
    66   30   31 2    
    67   30   32 1    
    68   32   86 1    
    69   32   33 1    
    70   32   87 1    
    71   33   89 1    
    72   33   34 1    
    73   33   88 1    
    74   34   35 2    
    75   34   36 am   BACKBONE|DICT|INTERRES
    76   36   38 1    
    77   36   37 1    
    78   38   39 1    
    79   38   91 1    
    80   38   90 1    
    81   39   40 1    
    82   39   93 1    
    83   39   92 1    
    84   40   41 1    
    85   40   94 1    
    86   40   95 1    
    87   41   42 1    
    88   41   97 1    
    89   41   96 1    
    90   42   98 1    
    91   42   99 1    
    92   42   43 1    
    93   43   44 am   BACKBONE|DICT|INTERRES
    94   43  100 1    
    95   44   45 2    
    96   44   46 1    
    97   46  102 1    
    98   46   47 1    
    99   46  101 1    
   100   47  104 1    
   101   47   48 1    
   102   47  103 1    
   103   48   49 2    
   104   48   50 am   BACKBONE|DICT|INTERRES
   105   50   51 1    
   106   50   52 1    
   107   51  105 1    
   108   52  107 1    
   109   52   53 1    
   110   52  106 1    
   111   53   54 1    
   112   53  108 1    
   113   53  109 1    
   114   54  111 1    
   115   54   55 1    
   116   54  110 1    
   117   55  112 1    
@<TRIPOS>SUBSTRUCTURE
     1 UNK         1 GROUP             0       ****    0 ROOT    
