@<TRIPOS>MOLECULE
004_c3
91   96    1
SMALL
USER_CHARGES


@<TRIPOS>ATOM
      1 Fe1         0.0000    0.0000    0.0000 Fe        1 UNK         0.0000 
      2 O2          1.4814    7.5026    1.4802 O.3       1 UNK         0.0000 
      3 C3          0.7893    6.4636    0.8331 C.3       1 UNK         0.0000 
      4 H4          1.2881    6.3034   -0.1455 H         1 UNK         0.0000 
      5 C5         -0.6447    6.9056    0.4877 C.3       1 UNK         0.0000 
      6 C6          0.9119    5.1374    1.6430 C.3       1 UNK         0.0000 
      7 H7          1.9786    4.9269    1.8165 H         1 UNK         0.0000 
      8 C8          0.3208    5.2432    3.0335 C.2       1 UNK         0.0000 
      9 O9          1.1112    5.0865    4.1129 O.3       1 UNK         0.0000 
     10 O10        -0.8718    5.4513    3.1939 O.2       1 UNK         0.0000 
     11 N11         0.2594    4.0438    0.9344 N.am      1 UNK         0.0000 
     12 C12         0.8077    2.9230    0.3572 C.2       1 UNK         0.0000 
     13 O13         0.0000    2.0800    0.0000 O.co2     1 UNK         0.0000 
     14 C14         2.2952    2.6465    0.1101 C.ar      1 UNK         0.0000 
     15 C15         3.2016    3.7237   -0.0334 C.ar      1 UNK         0.0000 
     16 C16         4.5592    3.5267   -0.2662 C.ar      1 UNK         0.0000 
     17 C17         5.0720    2.2467   -0.3833 C.ar      1 UNK         0.0000 
     18 C18         4.2253    1.1432   -0.2921 C.ar      1 UNK         0.0000 
     19 O19         4.7370   -0.0992   -0.4308 O.3       1 UNK         0.0000 
     20 C20         2.8407    1.3163   -0.0602 C.ar      1 UNK         0.0000 
     21 O21         2.0708    0.1954    0.0000 O.co2     1 UNK         0.0000 
     22 H22         0.9611    7.7596    2.2855 H         1 UNK         0.0000 
     23 H23        -0.6058    7.8262   -0.1331 H         1 UNK         0.0000 
     24 H24        -1.1691    6.1259   -0.1025 H         1 UNK         0.0000 
     25 H25        -1.2347    7.1346    1.3972 H         1 UNK         0.0000 
     26 H26        -0.7730    4.0895    0.9315 H         1 UNK         0.0000 
     27 H27         2.8902    4.7471   -0.0084 H         1 UNK         0.0000 
     28 H28         5.2191    4.3794   -0.3661 H         1 UNK         0.0000 
     29 H29         6.1311    2.1119   -0.5642 H         1 UNK         0.0000 
     30 H30         5.6782   -0.2601   -0.5893 H         1 UNK         0.0000 
     31 O31         0.9624   -7.5436    1.7338 O.3       1 UNK         0.0000 
     32 C32         0.4528   -6.4812    0.9668 C.3       1 UNK         0.0000 
     33 H33        -0.5542   -6.2454    1.3695 H         1 UNK         0.0000 
     34 C34         0.2092   -6.9342   -0.4852 C.3       1 UNK         0.0000 
     35 C35         1.3373   -5.2085    1.1399 C.3       1 UNK         0.0000 
     36 H36         1.4237   -4.9823    2.2144 H         1 UNK         0.0000 
     37 C37         2.7651   -5.4231    0.6830 C.2       1 UNK         0.0000 
     38 O38         3.7756   -5.3181    1.5678 O.3       1 UNK         0.0000 
     39 O39         3.0198   -5.6722   -0.4852 O.2       1 UNK         0.0000 
     40 N40         0.7690   -4.0890    0.4007 N.am      1 UNK         0.0000 
     41 C41         0.2289   -2.9116    0.8643 C.2       1 UNK         0.0000 
     42 O42         0.0000   -2.0800    0.0000 O.co2     1 UNK         0.0000 
     43 C43        -0.1218   -2.5685    2.3196 C.ar      1 UNK         0.0000 
     44 C44        -0.4383   -3.6132    3.2201 C.ar      1 UNK         0.0000 
     45 C45        -0.7734   -3.3767    4.5493 C.ar      1 UNK         0.0000 
     46 C46        -0.8253   -2.0843    5.0395 C.ar      1 UNK         0.0000 
     47 C47        -0.5641   -1.0055    4.1970 C.ar      1 UNK         0.0000 
     48 O48        -0.6410    0.2510    4.6873 O.3       1 UNK         0.0000 
     49 C49        -0.2249   -1.2161    2.8392 C.ar      1 UNK         0.0000 
     50 O50         0.0000   -0.1086    2.0772 O.co2     1 UNK         0.0000 
     51 H51         1.7897   -7.8686    1.2920 H         1 UNK         0.0000 
     52 H52        -0.4727   -7.8112   -0.4871 H         1 UNK         0.0000 
     53 H53        -0.2783   -6.1311   -1.0756 H         1 UNK         0.0000 
     54 H54         1.1507   -7.2356   -0.9857 H         1 UNK         0.0000 
     55 H55         0.8514   -4.1685   -0.6268 H         1 UNK         0.0000 
     56 H56        -0.4741   -4.6396    2.9197 H         1 UNK         0.0000 
     57 H57        -1.0051   -4.2077    5.2036 H         1 UNK         0.0000 
     58 H58        -1.0879   -1.9190    6.0770 H         1 UNK         0.0000 
     59 H59        -0.8687    0.4375    5.6094 H         1 UNK         0.0000 
     60 O60        -7.4699    0.7995   -2.0270 O.3       1 UNK         0.0000 
     61 C61        -6.4385    0.3560   -1.1805 C.3       1 UNK         0.0000 
     62 H62        -6.1881   -0.6792   -1.4919 H         1 UNK         0.0000 
     63 C63        -6.9492    0.2259    0.2671 C.3       1 UNK         0.0000 
     64 C64        -5.1601    1.2286   -1.3733 C.3       1 UNK         0.0000 
     65 H65        -4.8921    1.2261   -2.4423 H         1 UNK         0.0000 
     66 C66        -5.3944    2.6875   -1.0423 C.2       1 UNK         0.0000 
     67 O67        -5.2564    3.6236   -2.0012 O.2       1 UNK         0.0000 
     68 O68        -5.6899    3.0343    0.0905 O.3       1 UNK         0.0000 
     69 N69        -4.0704    0.7264   -0.5456 N.am      1 UNK         0.0000 
     70 C70        -2.8680    0.1729   -0.9179 C.2       1 UNK         0.0000 
     71 O71        -2.0800    0.0000    0.0000 O.co2     1 UNK         0.0000 
     72 C72        -2.4606   -0.2597   -2.3380 C.ar      1 UNK         0.0000 
     73 C73        -3.4728   -0.6874   -3.2291 C.ar      1 UNK         0.0000 
     74 C74        -3.1993   -1.1053   -4.5270 C.ar      1 UNK         0.0000 
     75 C75        -1.8982   -1.1320   -4.9943 C.ar      1 UNK         0.0000 
     76 C76        -0.8468   -0.7601   -4.1591 C.ar      1 UNK         0.0000 
     77 O77         0.4194   -0.8120   -4.6272 O.3       1 UNK         0.0000 
     78 C78        -1.0937   -0.3344   -2.8319 C.ar      1 UNK         0.0000 
     79 O79        -0.0055    0.0000   -2.0800 O.co2     1 UNK         0.0000 
     80 H80        -7.8148    1.6564   -1.6635 H         1 UNK         0.0000 
     81 H81        -7.8263   -0.4557    0.2874 H         1 UNK         0.0000 
     82 H82        -6.1714   -0.2132    0.9253 H         1 UNK         0.0000 
     83 H83        -7.2689    1.2030    0.6802 H         1 UNK         0.0000 
     84 H84        -4.1991    0.8753    0.4691 H         1 UNK         0.0000 
     85 H85        -4.5016   -0.7466   -2.9380 H         1 UNK         0.0000 
     86 H86        -4.0080   -1.4211   -5.1740 H         1 UNK         0.0000 
     87 H87        -1.7037   -1.4602   -6.0078 H         1 UNK         0.0000 
     88 H88         0.6309   -1.0959   -5.5280 H         1 UNK         0.0000 
     89 H89         0.5865    5.1827    4.9110 H         1 UNK         0.0000 
     90 H90         4.6100   -5.4815    1.1221 H         1 UNK         0.0000 
     91 H91        -5.7995    3.9877    0.1154 H         1 UNK         0.0000 
@<TRIPOS>BOND
     1    1   13 nc   
     2    1   21 nc   
     3    1   42 nc   
     4    1   50 nc   
     5    1   71 nc   
     6    1   79 nc   
     7    2   22 1    
     8    2    3 1    
     9    3    4 1    
    10    3    6 1    
    11    3    5 1    
    12    5   25 1    
    13    5   23 1    
    14    5   24 1    
    15    6    7 1    
    16    6    8 1    
    17    6   11 1    
    18    8   10 2    
    19    8    9 1    
    20    9   89 1    
    21   11   12 am   BACKBONE|DICT|INTERRES
    22   11   26 1    
    23   12   13 2    
    24   12   14 1    
    25   14   15 ar   
    26   14   20 ar   
    27   15   27 1    
    28   15   16 ar   
    29   16   17 ar   
    30   16   28 1    
    31   17   18 ar   
    32   17   29 1    
    33   18   20 ar   
    34   18   19 1    
    35   19   30 1    
    36   20   21 1    
    37   31   32 1    
    38   31   51 1    
    39   32   35 1    
    40   32   33 1    
    41   32   34 1    
    42   34   52 1    
    43   34   53 1    
    44   34   54 1    
    45   35   36 1    
    46   35   37 1    
    47   35   40 1    
    48   37   38 1    
    49   37   39 2    
    50   38   90 1    
    51   40   41 am   BACKBONE|DICT|INTERRES
    52   40   55 1    
    53   41   42 2    
    54   41   43 1    
    55   43   49 ar   
    56   43   44 ar   
    57   44   45 ar   
    58   44   56 1    
    59   45   46 ar   
    60   45   57 1    
    61   46   58 1    
    62   46   47 ar   
    63   47   48 1    
    64   47   49 ar   
    65   48   59 1    
    66   49   50 1    
    67   60   80 1    
    68   60   61 1    
    69   61   62 1    
    70   61   63 1    
    71   61   64 1    
    72   63   81 1    
    73   63   83 1    
    74   63   82 1    
    75   64   65 1    
    76   64   66 1    
    77   64   69 1    
    78   66   68 1    
    79   66   67 2    
    80   68   91 1    
    81   69   84 1    
    82   69   70 am   BACKBONE|DICT|INTERRES
    83   70   71 2    
    84   70   72 1    
    85   72   73 ar   
    86   72   78 ar   
    87   73   85 1    
    88   73   74 ar   
    89   74   75 ar   
    90   74   86 1    
    91   75   76 ar   
    92   75   87 1    
    93   76   78 ar   
    94   76   77 1    
    95   77   88 1    
    96   78   79 1    
@<TRIPOS>SUBSTRUCTURE
     1 UNK         1 GROUP             0       ****    0 ROOT    
