@<TRIPOS>MOLECULE
011_r5_c1
85   94    1
SMALL
USER_CHARGES


@<TRIPOS>ATOM
      1 Fe1         0.0000    0.0000    0.0000 Fe        1 UNK         0.0000 
      2 C2         -2.6705   -7.0462   -0.1676 C.ar      1 UNK         0.0000 
      3 N3         -3.9318   -7.5222   -0.1375 N.2       1 UNK         0.0000 
      4 C4         -4.3095   -7.4255    1.1510 C.ar      1 UNK         0.0000 
      5 N5         -3.3397   -6.9071    1.9297 N.pl3     1 UNK         0.0000 
      6 H6         -3.3922   -6.7357    2.9593 H         1 UNK         0.0000 
      7 C7         -2.3007   -6.6643    1.1055 C.ar      1 UNK         0.0000 
      8 C8         -0.9749   -6.0507    1.5177 C.3       1 UNK         0.0000 
      9 C9         -0.7330   -4.7490    0.7183 C.3       1 UNK         0.0000 
     10 N10         0.4454   -3.9714    1.1044 N.am      1 UNK         0.0000 
     11 O11         1.3332   -4.4855    1.9697 O.3       1 UNK         0.0000 
     12 C12         2.5505   -3.8300    1.6606 C.3       1 UNK         0.0000 
     13 H13         3.0373   -4.4881    0.9045 H         1 UNK         0.0000 
     14 C14         3.4480   -3.7850    2.8913 C.3       1 UNK         0.0000 
     15 C15         2.2516   -2.4641    0.9558 C.3       1 UNK         0.0000 
     16 H16         2.8807   -2.4213    0.0392 H         1 UNK         0.0000 
     17 C17         0.7899   -2.7503    0.6028 C.2       1 UNK         0.0000 
     18 O18         0.0260   -2.0350   -0.0925 O.co2     1 UNK         0.0000 
     19 N19         2.5187   -1.2217    1.7392 N.am      1 UNK         0.0000 
     20 C20         2.3454    0.0122    1.1618 C.2       1 UNK         0.0000 
     21 O21         2.0800    0.0000    0.0000 O.co2     1 UNK         0.0000 
     22 C22         2.0588    1.3453    1.8623 C.ar      1 UNK         0.0000 
     23 C23         1.0799    2.2873    1.2684 C.ar      1 UNK         0.0000 
     24 O24         0.3687    2.0350    0.0925 O.co2     1 UNK         0.0000 
     25 C25         0.6658    3.4073    2.0049 C.ar      1 UNK         0.0000 
     26 O26        -0.2334    4.2607    1.4692 O.3       1 UNK         0.0000 
     27 C27         1.1221    3.5971    3.3121 C.ar      1 UNK         0.0000 
     28 C28         1.9918    2.6802    3.9011 C.ar      1 UNK         0.0000 
     29 C29         2.4636    1.5720    3.1875 C.ar      1 UNK         0.0000 
     30 H30        -2.0709   -6.9668   -1.0621 H         1 UNK         0.0000 
     31 H31        -5.2841   -7.7287    1.5163 H         1 UNK         0.0000 
     32 H32        -1.0208   -5.8260    2.6073 H         1 UNK         0.0000 
     33 H33        -0.1555   -6.7766    1.3373 H         1 UNK         0.0000 
     34 H34        -0.6622   -4.9991   -0.3617 H         1 UNK         0.0000 
     35 H35        -1.6138   -4.1772    0.8789 H         1 UNK         0.0000 
     36 H36         4.4172   -3.3135    2.6323 H         1 UNK         0.0000 
     37 H37         3.6291   -4.8212    3.2482 H         1 UNK         0.0000 
     38 H38         2.9554   -3.2346    3.7203 H         1 UNK         0.0000 
     39 H39         2.8084   -1.2941    2.7052 H         1 UNK         0.0000 
     40 H40        -0.5616    5.0389    1.9461 H         1 UNK         0.0000 
     41 H41         0.7557    4.4356    3.8943 H         1 UNK         0.0000 
     42 H42         2.2734    2.8154    4.9378 H         1 UNK         0.0000 
     43 H43         3.0958    0.8617    3.7003 H         1 UNK         0.0000 
     44 C44         2.6729    0.1831    7.0468 C.ar      1 UNK         0.0000 
     45 N45         3.9369    0.1501    7.5191 N.2       1 UNK         0.0000 
     46 C46         4.3122   -1.1394    7.4144 C.ar      1 UNK         0.0000 
     47 N47         3.3405   -1.9166    6.9017 N.pl3     1 UNK         0.0000 
     48 H48         3.3912   -2.9429    6.7246 H         1 UNK         0.0000 
     49 C49         2.2926   -1.0918    6.6606 C.ar      1 UNK         0.0000 
     50 C50         0.9781   -1.4982    6.0525 C.3       1 UNK         0.0000 
     51 C51         0.7426   -0.7116    4.7441 C.3       1 UNK         0.0000 
     52 N52        -0.4398   -1.0984    3.9682 N.am      1 UNK         0.0000 
     53 O53        -1.3291   -1.9643    4.4848 O.3       1 UNK         0.0000 
     54 C54        -2.5434   -1.6592    3.8265 C.3       1 UNK         0.0000 
     55 H55        -3.0338   -0.9020    4.4801 H         1 UNK         0.0000 
     56 C56        -3.4447   -2.8892    3.7820 C.3       1 UNK         0.0000 
     57 C57        -2.2496   -0.9587    2.4603 C.3       1 UNK         0.0000 
     58 H58        -2.8744   -0.0432    2.4151 H         1 UNK         0.0000 
     59 C59        -0.7889   -0.5976    2.7491 C.2       1 UNK         0.0000 
     60 O60        -0.0260    0.0925    2.0350 O.co2     1 UNK         0.0000 
     61 N61        -2.5142   -1.7416    1.2195 N.am      1 UNK         0.0000 
     62 C62        -2.3453   -1.1623   -0.0145 C.2       1 UNK         0.0000 
     63 O63        -2.0800    0.0000    0.0000 O.co2     1 UNK         0.0000 
     64 C64        -2.0573   -1.8646   -1.3448 C.ar      1 UNK         0.0000 
     65 C65        -1.0767   -1.2705   -2.2848 C.ar      1 UNK         0.0000 
     66 O66        -0.3687   -0.0925   -2.0350 O.co2     1 UNK         0.0000 
     67 C67        -0.6552   -2.0125   -3.3999 C.ar      1 UNK         0.0000 
     68 O68         0.2521   -1.4814   -4.2479 O.3       1 UNK         0.0000 
     69 C69        -1.1080   -3.3212   -3.5861 C.ar      1 UNK         0.0000 
     70 C70        -1.9825   -3.9075   -2.6736 C.ar      1 UNK         0.0000 
     71 C71        -2.4600   -3.1897   -1.5700 C.ar      1 UNK         0.0000 
     72 H72         2.0774    1.0807    6.9760 H         1 UNK         0.0000 
     73 H73         5.2894   -1.5058    7.7112 H         1 UNK         0.0000 
     74 H74         1.0230   -2.5904    5.8314 H         1 UNK         0.0000 
     75 H75         0.1566   -1.3159    6.7771 H         1 UNK         0.0000 
     76 H76         0.6682    0.3713    4.9902 H         1 UNK         0.0000 
     77 H77         1.6218   -0.8756    4.1740 H         1 UNK         0.0000 
     78 H78        -4.4122   -2.6313    3.3049 H         1 UNK         0.0000 
     79 H79        -3.6342   -3.2430    4.8180 H         1 UNK         0.0000 
     80 H80        -2.9522   -3.7211    3.2356 H         1 UNK         0.0000 
     81 H81        -2.8051   -2.7083    1.2895 H         1 UNK         0.0000 
     82 H82         0.5940   -1.9634   -5.0164 H         1 UNK         0.0000 
     83 H83        -0.7339   -3.9071   -4.4201 H         1 UNK         0.0000 
     84 H84        -2.2634   -4.9448   -2.8044 H         1 UNK         0.0000 
     85 H85        -3.0951   -3.6996   -0.8594 H         1 UNK         0.0000 
@<TRIPOS>BOND
     1    1   18 nc   
     2    1   21 nc   
     3    1   24 nc   
     4    1   60 nc   
     5    1   63 nc   
     6    1   66 nc   
     7    2    3 ar   
     8    2    7 ar   
     9    2   30 1    
    10    3    4 ar   
    11    4   31 1    
    12    4    5 ar   
    13    5    6 1    
    14    5    7 ar   
    15    7    8 1    
    16    8   32 1    
    17    8    9 1    
    18    8   33 1    
    19    9   35 1    
    20    9   10 1    
    21    9   34 1    
    22   10   11 1    
    23   10   17 am   BACKBONE|DICT|INTERRES
    24   11   12 1    
    25   12   13 1    
    26   12   14 1    
    27   12   15 1    
    28   14   37 1    
    29   14   38 1    
    30   14   36 1    
    31   15   16 1    
    32   15   19 1    
    33   15   17 1    
    34   17   18 2    
    35   19   39 1    
    36   19   20 am   BACKBONE|DICT|INTERRES
    37   20   21 2    
    38   20   22 1    
    39   22   29 ar   
    40   22   23 ar   
    41   23   25 ar   
    42   23   24 1    
    43   25   27 ar   
    44   25   26 1    
    45   26   40 1    
    46   27   41 1    
    47   27   28 ar   
    48   28   42 1    
    49   28   29 ar   
    50   29   43 1    
    51   44   45 ar   
    52   44   49 ar   
    53   44   72 1    
    54   45   46 ar   
    55   46   73 1    
    56   46   47 ar   
    57   47   48 1    
    58   47   49 ar   
    59   49   50 1    
    60   50   75 1    
    61   50   51 1    
    62   50   74 1    
    63   51   76 1    
    64   51   52 1    
    65   51   77 1    
    66   52   53 1    
    67   52   59 am   BACKBONE|DICT|INTERRES
    68   53   54 1    
    69   54   55 1    
    70   54   56 1    
    71   54   57 1    
    72   56   79 1    
    73   56   78 1    
    74   56   80 1    
    75   57   58 1    
    76   57   59 1    
    77   57   61 1    
    78   59   60 2    
    79   61   81 1    
    80   61   62 am   BACKBONE|DICT|INTERRES
    81   62   64 1    
    82   62   63 2    
    83   64   65 ar   
    84   64   71 ar   
    85   65   66 1    
    86   65   67 ar   
    87   67   68 1    
    88   67   69 ar   
    89   68   82 1    
    90   69   70 ar   
    91   69   83 1    
    92   70   71 ar   
    93   70   84 1    
    94   71   85 1    
@<TRIPOS>SUBSTRUCTURE
     1 UNK         1 GROUP             0       ****    0 ROOT    
