@<TRIPOS>MOLECULE
008_c3
46   51    1
SMALL
USER_CHARGES


@<TRIPOS>ATOM
      1 Fe1         0.0000    0.0000    0.0000 Fe        1 UNK         0.0000 
      2 C2          3.8093    2.9611    0.6092 C.ar      1 UNK         0.0000 
      3 C3          2.9280    3.9712    1.0917 C.ar      1 UNK         0.0000 
      4 C4          1.5303    3.7791    0.8692 C.ar      1 UNK         0.0000 
      5 O5          0.6098    4.4221    1.6151 O.3       1 UNK         0.0000 
      6 C6          1.1546    2.7622   -0.0444 C.ar      1 UNK         0.0000 
      7 O7          0.0000    2.0800    0.0000 O.co2     1 UNK         0.0000 
      8 C8          2.0907    2.3125   -0.9313 C.ar      1 UNK         0.0000 
      9 C9          3.2334    1.9855   -0.2395 C.ar      1 UNK         0.0000 
     10 C10         3.2593    0.5765    0.1564 C.2       1 UNK         0.0000 
     11 O11         2.0780   -0.0905    0.0000 O.co2     1 UNK         0.0000 
     12 O12         4.1560    0.1059    0.8383 O.co2     1 UNK         0.0000 
     13 H13         0.8582    5.0819    2.2778 H         1 UNK         0.0000 
     14 C14         0.7769   -2.9772    3.7759 C.ar      1 UNK         0.0000 
     15 C15         1.2838   -3.9472    2.8636 C.ar      1 UNK         0.0000 
     16 C16         1.0050   -3.7495    1.4767 C.ar      1 UNK         0.0000 
     17 O17         1.7538   -4.3394    0.5237 O.3       1 UNK         0.0000 
     18 C18         0.0275   -2.7778    1.1449 C.ar      1 UNK         0.0000 
     19 O19         0.0000   -2.0800    0.0000 O.co2     1 UNK         0.0000 
     20 C20        -0.8496   -2.3880    2.1169 C.ar      1 UNK         0.0000 
     21 C21        -0.1378   -2.0375    3.2413 C.ar      1 UNK         0.0000 
     22 C22         0.2114   -0.6157    3.2554 C.2       1 UNK         0.0000 
     23 O23         0.0000    0.0450    2.0795 O.co2     1 UNK         0.0000 
     24 O24         0.9015   -0.1210    4.1326 O.co2     1 UNK         0.0000 
     25 H25         2.4580   -4.9663    0.7410 H         1 UNK         0.0000 
     26 C26        -3.0239    0.7089   -3.7790 C.ar      1 UNK         0.0000 
     27 C27        -3.9804    1.2344   -2.8636 C.ar      1 UNK         0.0000 
     28 C28        -3.7650    0.9811   -1.4748 C.ar      1 UNK         0.0000 
     29 O29        -4.3415    1.7487   -0.5284 O.3       1 UNK         0.0000 
     30 C30        -2.7908    0.0080   -1.1382 C.ar      1 UNK         0.0000 
     31 O31        -2.0800    0.0000    0.0000 O.co2     1 UNK         0.0000 
     32 C32        -2.4135   -0.8875   -2.1001 C.ar      1 UNK         0.0000 
     33 C33        -2.0762   -0.1947   -3.2404 C.ar      1 UNK         0.0000 
     34 C34        -0.6591    0.1773   -3.2604 C.2       1 UNK         0.0000 
     35 O35         0.0045    0.0000   -2.0800 O.co2     1 UNK         0.0000 
     36 O36        -0.1747    0.8565   -4.1518 O.co2     1 UNK         0.0000 
     37 H37        -4.9681    2.4516   -0.7513 H         1 UNK         0.0000 
     38 H38         1.8576    2.2651   -1.9848 H         1 UNK         0.0000 
     39 H39         3.2765    4.8541    1.6069 H         1 UNK         0.0000 
     40 H40         4.8506    2.9712    0.8956 H         1 UNK         0.0000 
     41 H41        -2.4191   -1.9458   -1.8847 H         1 UNK         0.0000 
     42 H42        -4.8412    1.8039   -3.1815 H         1 UNK         0.0000 
     43 H43        -2.9929    0.9620   -4.8285 H         1 UNK         0.0000 
     44 H44        -1.9115   -2.3948    1.9203 H         1 UNK         0.0000 
     45 H45         1.8527   -4.7885    3.2309 H         1 UNK         0.0000 
     46 H46         1.0945   -2.9888    4.8081 H         1 UNK         0.0000 
@<TRIPOS>BOND
     1    1    7 nc   
     2    1   11 nc   
     3    1   19 nc   
     4    1   23 nc   
     5    1   31 nc   
     6    1   35 nc   
     7    2    3 ar   
     8    2    9 ar   
     9    2   40 1    
    10    3    4 ar   
    11    3   39 1    
    12    4    5 1    
    13    4    6 ar   
    14    5   13 1    
    15    6    7 1    
    16    6    8 ar   
    17    8    9 ar   
    18    8   38 1    
    19    9   10 1    
    20   10   12 2    
    21   10   11 1    
    22   14   15 ar   
    23   14   21 ar   
    24   14   46 1    
    25   15   16 ar   
    26   15   45 1    
    27   16   17 1    
    28   16   18 ar   
    29   17   25 1    
    30   18   19 1    
    31   18   20 ar   
    32   20   21 ar   
    33   20   44 1    
    34   21   22 1    
    35   22   24 2    
    36   22   23 1    
    37   26   33 ar   
    38   26   27 ar   
    39   26   43 1    
    40   27   28 ar   
    41   27   42 1    
    42   28   30 ar   
    43   28   29 1    
    44   29   37 1    
    45   30   31 1    
    46   30   32 ar   
    47   32   33 ar   
    48   32   41 1    
    49   33   34 1    
    50   34   35 1    
    51   34   36 2    
@<TRIPOS>SUBSTRUCTURE
     1 UNK         1 GROUP             0       ****    0 ROOT    
