@<TRIPOS>MOLECULE
219_c1
118   126    1
SMALL
USER_CHARGES


@<TRIPOS>ATOM
      1 Fe1        -0.0546    0.0118   -0.0058 Fe        1 UNK         0.0000 
      2 O2          0.2859    2.2082    0.0224 O.co2     1 UNK         0.0000 
      3 N3          1.6124    2.4507    0.0011 N.am      1 UNK         0.0000 
      4 C4          2.5168    1.3897   -0.0254 C.2       1 UNK         0.0000 
      5 O5          2.1364    0.2137   -0.1015 O.co2     1 UNK         0.0000 
      6 C6          3.9504    1.7573    0.0450 C.2       1 UNK         0.0000 
      7 C7          4.3015    3.0854    0.0441 C.2       1 UNK         0.0000 
      8 O8          5.5880    3.5009    0.1364 O.3       1 UNK         0.0000 
      9 C9          3.2949    4.1304    0.0027 C.2       1 UNK         0.0000 
     10 C10         2.0146    3.7524   -0.0004 C.2       1 UNK         0.0000 
     11 C11         5.0333    0.6141    0.2052 C.3       1 UNK         0.0000 
     12 H12         5.9794    1.1511    0.2521 H         1 UNK         0.0000 
     13 C13         5.0490   -0.1711    1.5560 C.3       1 UNK         0.0000 
     14 H14         6.0676   -0.5588    1.6301 H         1 UNK         0.0000 
     15 C15         4.9000    0.7288    2.7876 C.3       1 UNK         0.0000 
     16 C16         4.1670   -1.4554    1.5761 C.3       1 UNK         0.0000 
     17 C17         4.4100   -2.4309    0.3902 C.3       1 UNK         0.0000 
     18 H18         3.5749   -3.1389    0.3793 H         1 UNK         0.0000 
     19 C19         5.7152   -3.2347    0.5739 C.3       1 UNK         0.0000 
     20 C20         4.3934   -1.6679   -0.9625 C.3       1 UNK         0.0000 
     21 C21         5.3113   -0.4045   -0.9506 C.3       1 UNK         0.0000 
     22 H22         6.2983   -0.8007   -0.7105 H         1 UNK         0.0000 
     23 C23         5.5829    0.2428   -2.2997 C.2       1 UNK         0.0000 
     24 C24         5.3304   -0.2771   -3.5097 C.2       1 UNK         0.0000 
     25 H25         3.5465    5.1837    0.0032 H         1 UNK         0.0000 
     26 H26         1.1858    4.4513   -0.0067 H         1 UNK         0.0000 
     27 H27         5.1571    0.1783    3.6926 H         1 UNK         0.0000 
     28 H28         3.8903    1.1209    2.8871 H         1 UNK         0.0000 
     29 H29         5.5793    1.5810    2.7318 H         1 UNK         0.0000 
     30 H30         3.1105   -1.2032    1.6393 H         1 UNK         0.0000 
     31 H31         4.3488   -2.0026    2.5055 H         1 UNK         0.0000 
     32 H32         5.8448   -3.9553   -0.2362 H         1 UNK         0.0000 
     33 H33         5.6978   -3.8031    1.5062 H         1 UNK         0.0000 
     34 H34         6.6005   -2.5999    0.5957 H         1 UNK         0.0000 
     35 H35         4.7035   -2.3682   -1.7406 H         1 UNK         0.0000 
     36 H36         3.3664   -1.4231   -1.2138 H         1 UNK         0.0000 
     37 H37         6.0455    1.2196   -2.2605 H         1 UNK         0.0000 
     38 H38         4.8688   -1.2449   -3.6475 H         1 UNK         0.0000 
     39 H39         5.5793    0.2828   -4.3990 H         1 UNK         0.0000 
     40 O40         0.2432   -2.1725    0.2928 O.co2     1 UNK         0.0000 
     41 N41         0.0982   -2.4229    1.6126 N.am      1 UNK         0.0000 
     42 C42         0.0544   -1.3610    2.5179 C.2       1 UNK         0.0000 
     43 O43         0.0112   -0.1751    2.1622 O.co2     1 UNK         0.0000 
     44 C44         0.0871   -1.7274    3.9481 C.2       1 UNK         0.0000 
     45 C45         0.1096   -3.0519    4.3056 C.2       1 UNK         0.0000 
     46 O46         0.1727   -3.4531    5.5984 O.3       1 UNK         0.0000 
     47 C47         0.0911   -4.1024    3.3010 C.2       1 UNK         0.0000 
     48 C48         0.0869   -3.7265    2.0175 C.2       1 UNK         0.0000 
     49 C49         0.1240   -0.5620    5.0164 C.3       1 UNK         0.0000 
     50 H50         0.1035   -1.0824    5.9728 H         1 UNK         0.0000 
     51 C51         1.4494    0.2642    5.1155 C.3       1 UNK         0.0000 
     52 H52         1.4671    0.6343    6.1423 H         1 UNK         0.0000 
     53 C53         2.7122   -0.5952    4.9847 C.3       1 UNK         0.0000 
     54 C54         1.4796    1.5510    4.2394 C.3       1 UNK         0.0000 
     55 C55         0.2766    2.4981    4.4701 C.3       1 UNK         0.0000 
     56 H56         0.3117    3.2584    3.6832 H         1 UNK         0.0000 
     57 C57         0.3669    3.2268    5.8261 C.3       1 UNK         0.0000 
     58 C58        -1.0515    1.7171    4.2958 C.3       1 UNK         0.0000 
     59 C59        -1.1178    0.3940    5.1248 C.3       1 UNK         0.0000 
     60 H60        -1.0823    0.7419    6.1591 H         1 UNK         0.0000 
     61 C61        -2.4354   -0.3643    5.0031 C.2       1 UNK         0.0000 
     62 C62        -3.4574   -0.0969    4.1731 C.2       1 UNK         0.0000 
     63 H63         0.0962   -5.1545    3.5585 H         1 UNK         0.0000 
     64 H64         0.0828   -4.4305    1.1894 H         1 UNK         0.0000 
     65 H65         3.5958   -0.0196    5.2607 H         1 UNK         0.0000 
     66 H66         2.8402   -0.9674    3.9706 H         1 UNK         0.0000 
     67 H67         2.6706   -1.4587    5.6493 H         1 UNK         0.0000 
     68 H68         1.5802    1.3173    3.1822 H         1 UNK         0.0000 
     69 H69         2.3945    2.1081    4.4598 H         1 UNK         0.0000 
     70 H70        -0.4539    3.9373    5.9420 H         1 UNK         0.0000 
     71 H71         1.2953    3.7982    5.8982 H         1 UNK         0.0000 
     72 H72         0.3340    2.5424    6.6734 H         1 UNK         0.0000 
     73 H73        -1.8741    2.3745    4.5899 H         1 UNK         0.0000 
     74 H74        -1.2007    1.5390    3.2348 H         1 UNK         0.0000 
     75 H75        -2.5312   -1.2174    5.6612 H         1 UNK         0.0000 
     76 H76        -3.4410    0.7259    3.4720 H         1 UNK         0.0000 
     77 H77        -4.3419   -0.7180    4.1892 H         1 UNK         0.0000 
     78 O78        -2.2514    0.0299   -0.2614 O.co2     1 UNK         0.0000 
     79 N79        -2.5144    0.0466   -1.5880 N.am      1 UNK         0.0000 
     80 C80        -1.4678    0.0320   -2.5130 C.2       1 UNK         0.0000 
     81 O81        -0.2740   -0.0448   -2.1778 O.co2     1 UNK         0.0000 
     82 C82        -1.8711    0.1109   -3.9367 C.2       1 UNK         0.0000 
     83 C83        -3.2014    0.1282   -4.2722 C.2       1 UNK         0.0000 
     84 O84        -3.6314    0.1997   -5.5568 O.3       1 UNK         0.0000 
     85 C85        -4.2281    0.0943   -3.2454 C.2       1 UNK         0.0000 
     86 C86        -3.8232    0.0641   -1.9709 C.2       1 UNK         0.0000 
     87 C87        -0.7383    0.1861   -5.0303 C.3       1 UNK         0.0000 
     88 H88        -1.2792    0.1740   -5.9753 H         1 UNK         0.0000 
     89 C89         0.0538    1.5373   -5.1179 C.3       1 UNK         0.0000 
     90 H90         0.3884    1.5904   -6.1564 H         1 UNK         0.0000 
     91 C91        -0.7894    2.8010   -4.8794 C.3       1 UNK         0.0000 
     92 C92         1.3575    1.5676   -4.2900 C.3       1 UNK         0.0000 
     93 C93         2.2953    0.3716   -4.5476 C.3       1 UNK         0.0000 
     94 H94         3.0126    0.4356   -3.7367 H         1 UNK         0.0000 
     95 C95         3.0248    0.4733   -5.9039 C.3       1 UNK         0.0000 
     96 C96         1.5599   -0.9789   -4.3880 C.3       1 UNK         0.0000 
     97 C97         0.2221   -1.0507   -5.1819 C.3       1 UNK         0.0000 
     98 H98         0.5412   -0.9992   -6.2247 H         1 UNK         0.0000 
     99 C99        -0.5172   -2.3798   -5.0405 C.2       1 UNK         0.0000 
    100 C100       -0.2105   -3.4070   -4.2288 C.2       1 UNK         0.0000 
    101 H101       -5.2844    0.1042   -3.4773 H         1 UNK         0.0000 
    102 H102       -4.5072    0.0469   -1.1279 H         1 UNK         0.0000 
    103 H103       -0.2073    3.7004   -5.0928 H         1 UNK         0.0000 
    104 H104       -1.1326    2.8726   -3.8460 H         1 UNK         0.0000 
    105 H105       -1.6636    2.8139   -5.5303 H         1 UNK         0.0000 
    106 H106        1.1384    1.6559   -3.2271 H         1 UNK         0.0000 
    107 H107        1.9063    2.4889   -4.5093 H         1 UNK         0.0000 
    108 H108        3.7348   -0.3478   -6.0266 H         1 UNK         0.0000 
    109 H109        3.5979    1.4002   -5.9756 H         1 UNK         0.0000 
    110 H110        2.3368    0.4385   -6.7487 H         1 UNK         0.0000 
    111 H111        2.2315   -1.7793   -4.7127 H         1 UNK         0.0000 
    112 H112        1.4210   -1.1659   -3.3274 H         1 UNK         0.0000 
    113 H113       -1.3922   -2.4802   -5.6674 H         1 UNK         0.0000 
    114 H114        0.6362   -3.3916   -3.5571 H         1 UNK         0.0000 
    115 H115       -0.8244   -4.2971   -4.2296 H         1 UNK         0.0000 
    116 H116        5.5959    4.4591    0.1324 H         1 UNK         0.0000 
    117 H117        0.1731   -4.4102    5.6168 H         1 UNK         0.0000 
    118 H118       -4.5890    0.2084   -5.5531 H         1 UNK         0.0000 
@<TRIPOS>BOND
     1    1    2 nc   
     2    1    5 nc   
     3    1   40 nc   
     4    1   43 nc   
     5    1   78 nc   
     6    1   81 nc   
     7    2    3 1    
     8    3   10 1    
     9    3    4 am   BACKBONE|DICT|INTERRES
    10    4    5 2    
    11    4    6 1    
    12    6   11 1    
    13    6    7 2    
    14    7    8 1    
    15    7    9 1    
    16    8  116 1    
    17    9   25 1    
    18    9   10 2    
    19   10   26 1    
    20   11   12 1    
    21   11   13 1    
    22   11   21 1    
    23   13   16 1    
    24   13   14 1    
    25   13   15 1    
    26   15   28 1    
    27   15   27 1    
    28   15   29 1    
    29   16   30 1    
    30   16   31 1    
    31   16   17 1    
    32   17   18 1    
    33   17   19 1    
    34   17   20 1    
    35   19   33 1    
    36   19   32 1    
    37   19   34 1    
    38   20   21 1    
    39   20   35 1    
    40   20   36 1    
    41   21   22 1    
    42   21   23 1    
    43   23   37 1    
    44   23   24 2    
    45   24   38 1    
    46   24   39 1    
    47   40   41 1    
    48   41   48 1    
    49   41   42 am   BACKBONE|DICT|INTERRES
    50   42   43 2    
    51   42   44 1    
    52   44   45 2    
    53   44   49 1    
    54   45   46 1    
    55   45   47 1    
    56   46  117 1    
    57   47   63 1    
    58   47   48 2    
    59   48   64 1    
    60   49   51 1    
    61   49   59 1    
    62   49   50 1    
    63   51   52 1    
    64   51   53 1    
    65   51   54 1    
    66   53   65 1    
    67   53   67 1    
    68   53   66 1    
    69   54   69 1    
    70   54   55 1    
    71   54   68 1    
    72   55   56 1    
    73   55   57 1    
    74   55   58 1    
    75   57   71 1    
    76   57   70 1    
    77   57   72 1    
    78   58   73 1    
    79   58   59 1    
    80   58   74 1    
    81   59   60 1    
    82   59   61 1    
    83   61   75 1    
    84   61   62 2    
    85   62   77 1    
    86   62   76 1    
    87   78   79 1    
    88   79   80 am   BACKBONE|DICT|INTERRES
    89   79   86 1    
    90   80   82 1    
    91   80   81 2    
    92   82   83 2    
    93   82   87 1    
    94   83   85 1    
    95   83   84 1    
    96   84  118 1    
    97   85   86 2    
    98   85  101 1    
    99   86  102 1    
   100   87   88 1    
   101   87   89 1    
   102   87   97 1    
   103   89   90 1    
   104   89   91 1    
   105   89   92 1    
   106   91  104 1    
   107   91  103 1    
   108   91  105 1    
   109   92  106 1    
   110   92   93 1    
   111   92  107 1    
   112   93   96 1    
   113   93   94 1    
   114   93   95 1    
   115   95  108 1    
   116   95  109 1    
   117   95  110 1    
   118   96  112 1    
   119   96   97 1    
   120   96  111 1    
   121   97   98 1    
   122   97   99 1    
   123   99  100 2    
   124   99  113 1    
   125  100  115 1    
   126  100  114 1    
@<TRIPOS>SUBSTRUCTURE
     1 UNK         1 GROUP             0       ****    0 ROOT    
