@<TRIPOS>MOLECULE
185_J2_c1
97   104    1
SMALL
USER_CHARGES


@<TRIPOS>ATOM
      1 C1         -9.8569   -3.2983    1.2799 C.ar      1 UNK         0.0000 
      2 C2         -8.5093   -3.5784    1.5054 C.ar      1 UNK         0.0000 
      3 C3         -7.9303   -4.7101    0.9360 C.ar      1 UNK         0.0000 
      4 C4         -8.6881   -5.5593    0.1367 C.ar      1 UNK         0.0000 
      5 C5        -10.0247   -5.2612   -0.1120 C.ar      1 UNK         0.0000 
      6 C6        -10.6269   -4.1171    0.4426 C.ar      1 UNK         0.0000 
      7 C7        -12.0937   -3.8679    0.1445 C.2       1 UNK         0.0000 
      8 O8        -12.8134   -4.8182   -0.1654 O.2       1 UNK         0.0000 
      9 N9        -12.6568   -2.6522    0.1431 N.am      1 UNK         0.0000 
     10 C10       -12.2383   -1.2687    0.3971 C.3       1 UNK         0.0000 
     11 H11       -11.9237   -1.2383    1.4376 H         1 UNK         0.0000 
     12 C12       -13.5734   -0.4700    0.4527 C.3       1 UNK         0.0000 
     13 O13       -13.5087    0.8821    0.8107 O.co2     1 UNK         0.0000 
     14 C14       -11.0045   -0.7715   -0.4759 C.3       1 UNK         0.0000 
     15 C15       -10.9800    0.4963   -1.4144 C.3       1 UNK         0.0000 
     16 C16       -10.9950    1.8546   -0.6646 C.3       1 UNK         0.0000 
     17 C17       -10.3252    3.1617   -1.1735 C.3       1 UNK         0.0000 
     18 N18       -10.6626    4.2139   -0.2035 N.am      1 UNK         0.0000 
     19 C19        -9.8643    4.8981    0.6479 C.2       1 UNK         0.0000 
     20 O20        -8.7445    5.3107    0.3338 O.2       1 UNK         0.0000 
     21 C21       -10.4713    5.0914    2.0589 C.ar      1 UNK         0.0000 
     22 C22       -11.2927    4.0980    2.6521 C.ar      1 UNK         0.0000 
     23 O23       -11.5244    3.0402    2.0057 O.co2     1 UNK         0.0000 
     24 C24       -11.8622    4.2735    3.9345 C.ar      1 UNK         0.0000 
     25 O25       -12.6238    3.4150    4.4908 O.co2     1 UNK         0.0000 
     26 C26       -11.6125    5.4535    4.6334 C.ar      1 UNK         0.0000 
     27 C27       -10.7931    6.4365    4.0796 C.ar      1 UNK         0.0000 
     28 C28       -10.2245    6.2578    2.8143 C.ar      1 UNK         0.0000 
     29 H29       -10.2731   -2.4360    1.7797 H         1 UNK         0.0000 
     30 H30        -7.9277   -2.9197    2.1343 H         1 UNK         0.0000 
     31 H31        -6.8919   -4.9372    1.1251 H         1 UNK         0.0000 
     32 H32        -8.2477   -6.4492   -0.2901 H         1 UNK         0.0000 
     33 H33       -10.6011   -5.9318   -0.7368 H         1 UNK         0.0000 
     34 H34       -13.6587   -2.6826    0.0496 H         1 UNK         0.0000 
     35 H35       -14.1365   -0.6554   -0.4657 H         1 UNK         0.0000 
     36 H36       -14.1966   -0.9699    1.1989 H         1 UNK         0.0000 
     37 H37       -10.6700   -1.6113   -1.0754 H         1 UNK         0.0000 
     38 H38       -10.1961   -0.6219    0.2373 H         1 UNK         0.0000 
     39 H39       -10.0730    0.4449   -2.0104 H         1 UNK         0.0000 
     40 H40       -11.8158    0.4458   -2.1121 H         1 UNK         0.0000 
     41 H41       -10.5850    1.6430    0.3198 H         1 UNK         0.0000 
     42 H42       -12.0369    2.1355   -0.5398 H         1 UNK         0.0000 
     43 H43       -10.7182    3.4031   -2.1661 H         1 UNK         0.0000 
     44 H44        -9.2480    3.0247   -1.3003 H         1 UNK         0.0000 
     45 H45       -11.3952    3.8854    0.4428 H         1 UNK         0.0000 
     46 H46       -12.0684    5.5929    5.6082 H         1 UNK         0.0000 
     47 H47       -10.6076    7.3343    4.6478 H         1 UNK         0.0000 
     48 H48        -9.5759    7.0145    2.3901 H         1 UNK         0.0000 
     49 H49        -8.2621   -5.1310    3.9056 H         1 UNK         0.0000 
     50 C50        -8.0950   -4.7253    4.8936 C.ar      1 UNK         0.0000 
     51 H51        -7.1282   -6.4808    5.6361 H         1 UNK         0.0000 
     52 H52        -8.9561   -2.9151    4.3675 H         1 UNK         0.0000 
     53 H53       -10.0917    0.9690    4.2574 H         1 UNK         0.0000 
     54 C54        -7.4606   -5.4817    5.8693 C.ar      1 UNK         0.0000 
     55 C55        -8.5089   -3.4299    5.1903 C.ar      1 UNK         0.0000 
     56 H56       -12.0748   -2.3048    4.2714 H         1 UNK         0.0000 
     57 H57        -9.9119   -1.2698    4.2280 H         1 UNK         0.0000 
     58 O58       -11.8727    0.2502    3.4589 O.co2     1 UNK         0.0000 
     59 C59       -10.9806    0.3799    4.5193 C.3       1 UNK         0.0000 
     60 C60       -10.5362   -0.9871    5.0678 C.3       1 UNK         0.0000 
     61 C61       -11.6562   -2.0881    5.2555 C.3       1 UNK         0.0000 
     62 H62       -13.5501    0.0782    5.8041 H         1 UNK         0.0000 
     63 C63        -7.2407   -4.9530    7.1359 C.ar      1 UNK         0.0000 
     64 H64       -11.1587   -3.0147    5.5226 H         1 UNK         0.0000 
     65 C65        -8.3352   -2.8761    6.4709 C.ar      1 UNK         0.0000 
     66 H66       -11.4077    0.9594    5.3442 H         1 UNK         0.0000 
     67 C67       -13.9560   -0.9309    5.7533 C.3       1 UNK         0.0000 
     68 C68       -12.8499   -1.8970    6.2563 C.3       1 UNK         0.0000 
     69 H69       -12.4792   -1.5737    7.2273 H         1 UNK         0.0000 
     70 C70        -7.6789   -3.6646    7.4325 C.ar      1 UNK         0.0000 
     71 H71        -6.7288   -5.5317    7.8906 H         1 UNK         0.0000 
     72 N72        -9.6991   -0.7594    6.2365 N.am      1 UNK         0.0000 
     73 H73       -14.1153   -1.1196    4.6892 H         1 UNK         0.0000 
     74 C74        -8.7621   -1.4709    6.8773 C.2       1 UNK         0.0000 
     75 H75       -15.4224    0.8963    5.3853 H         1 UNK         0.0000 
     76 O76       -14.7310    3.4814    2.1201 O.co2     1 UNK         0.0000 
     77 N77       -16.0535    0.2855    5.9284 N.am      1 UNK         0.0000 
     78 C78       -15.3514   -0.8891    6.4384 C.3       1 UNK         0.0000 
     79 H79       -15.2166   -0.8080    7.5205 H         1 UNK         0.0000 
     80 O80       -14.8270    1.2216    3.7787 O.co2     1 UNK         0.0000 
     81 H81        -9.8118    0.1830    6.5812 H         1 UNK         0.0000 
     82 C82       -15.7907    3.0535    2.6882 C.ar      1 UNK         0.0000 
     83 H83       -13.3068   -2.8742    6.4058 H         1 UNK         0.0000 
     84 C84       -15.8584    1.9271    3.5480 C.ar      1 UNK         0.0000 
     85 H85        -7.4984   -3.2685    8.4227 H         1 UNK         0.0000 
     86 C86       -16.9488    3.7810    2.4267 C.ar      1 UNK         0.0000 
     87 O87        -8.2472   -0.9541    7.8703 O.2       1 UNK         0.0000 
     88 C88       -17.0892    1.5519    4.1636 C.ar      1 UNK         0.0000 
     89 C89       -17.1626    0.3845    5.1720 C.2       1 UNK         0.0000 
     90 H90       -16.8805    4.6519    1.7833 H         1 UNK         0.0000 
     91 C91       -18.1671    3.3991    2.9821 C.ar      1 UNK         0.0000 
     92 C92       -18.2400    2.2972    3.8346 C.ar      1 UNK         0.0000 
     93 H93       -15.8966   -1.8229    6.2738 H         1 UNK         0.0000 
     94 H94       -19.0409    3.9844    2.7465 H         1 UNK         0.0000 
     95 O95       -18.1304   -0.3770    5.2775 O.2       1 UNK         0.0000 
     96 H96       -19.1875    2.0049    4.2721 H         1 UNK         0.0000 
     97 Fe97      -13.1869    2.0446    2.7842 Fe        1 UNK         0.0000 
@<TRIPOS>BOND
     1    1    2 ar   
     2    1    6 ar   
     3    1   29 1    
     4    2    3 ar   
     5    2   30 1    
     6    3    4 ar   
     7    3   31 1    
     8    4    5 ar   
     9    4   32 1    
    10    5    6 ar   
    11    5   33 1    
    12    6    7 1    
    13    7    8 2    
    14    7    9 am   BACKBONE|DICT|INTERRES
    15    9   34 1    
    16    9   10 1    
    17   10   12 1    
    18   10   14 1    
    19   10   11 1    
    20   12   13 1    
    21   12   35 1    
    22   12   36 1    
    23   13   97 nc   
    24   14   15 1    
    25   14   37 1    
    26   14   38 1    
    27   15   16 1    
    28   15   39 1    
    29   15   40 1    
    30   16   17 1    
    31   16   41 1    
    32   16   42 1    
    33   17   18 1    
    34   17   43 1    
    35   17   44 1    
    36   18   19 am   BACKBONE|DICT|INTERRES
    37   18   45 1    
    38   19   20 2    
    39   19   21 1    
    40   21   22 ar   
    41   21   28 ar   
    42   22   23 1    
    43   22   24 ar   
    44   23   97 nc   
    45   24   25 1    
    46   24   26 ar   
    47   25   97 nc   
    48   26   27 ar   
    49   26   46 1    
    50   27   28 ar   
    51   27   47 1    
    52   28   48 1    
    53   49   50 1    
    54   50   54 ar   
    55   50   55 ar   
    56   51   54 1    
    57   52   55 1    
    58   53   59 1    
    59   54   63 ar   
    60   55   65 ar   
    61   56   61 1    
    62   57   60 1    
    63   58   59 1    
    64   58   97 nc   
    65   59   66 1    
    66   59   60 1    
    67   60   61 1    
    68   60   72 1    
    69   61   68 1    
    70   61   64 1    
    71   62   67 1    
    72   63   70 ar   
    73   63   71 1    
    74   65   74 1    
    75   65   70 ar   
    76   67   78 1    
    77   67   73 1    
    78   67   68 1    
    79   68   83 1    
    80   68   69 1    
    81   70   85 1    
    82   72   81 1    
    83   72   74 am   BACKBONE|DICT|INTERRES
    84   74   87 2    
    85   75   77 1    
    86   76   82 1    
    87   76   97 nc   
    88   77   89 am   BACKBONE|DICT|INTERRES
    89   77   78 1    
    90   78   79 1    
    91   78   93 1    
    92   80   84 1    
    93   80   97 nc   
    94   82   86 ar   
    95   82   84 ar   
    96   84   88 ar   
    97   86   91 ar   
    98   86   90 1    
    99   88   92 ar   
   100   88   89 1    
   101   89   95 2    
   102   91   92 ar   
   103   91   94 1    
   104   92   96 1    
@<TRIPOS>SUBSTRUCTURE
     1 UNK         1 GROUP             0       ****    0 ROOT    
