@<TRIPOS>MOLECULE
032_c2
118   123    1
SMALL
USER_CHARGES


@<TRIPOS>ATOM
      1 Fe1         1.1107   -1.2061   -5.8175 Fe        1 UNK         0.0000 
      2 C2          1.6718    4.1567   -5.5217 C.ar      1 UNK         0.0000 
      3 C3          2.8814    3.8412   -6.1517 C.ar      1 UNK         0.0000 
      4 C4          3.1533    2.5252   -6.5116 C.ar      1 UNK         0.0000 
      5 C5          2.1919    1.5501   -6.2507 C.ar      1 UNK         0.0000 
      6 O6          2.3396    0.2562   -6.5195 O.co2     1 UNK         0.0000 
      7 C7          1.0085    1.8309   -5.6733 C.ar      1 UNK         0.0000 
      8 O8          0.2482    0.7203   -5.5937 O.co2     1 UNK         0.0000 
      9 C9          0.6968    3.1558   -5.2527 C.ar      1 UNK         0.0000 
     10 C10        -0.5479    3.5124   -4.4930 C.2       1 UNK         0.0000 
     11 O11        -1.1840    2.6296   -3.9365 O.2       1 UNK         0.0000 
     12 N12        -0.9540    4.8113   -4.3765 N.am      1 UNK         0.0000 
     13 C13        -2.0399    5.2625   -3.5243 C.3       1 UNK         0.0000 
     14 C14        -1.5296    6.4293   -2.6596 C.3       1 UNK         0.0000 
     15 C15        -2.6313    7.1083   -1.8371 C.3       1 UNK         0.0000 
     16 C16        -3.1249    6.3271   -0.6030 C.3       1 UNK         0.0000 
     17 C17        -2.0806    6.1191    0.5419 C.3       1 UNK         0.0000 
     18 H18        -1.2802    5.4447    0.1700 H         1 UNK         0.0000 
     19 N19        -1.4524    7.3983    0.9256 N.4       1 UNK         0.0000 
     20 H20        -0.8956    7.7837    0.1314 H         1 UNK         0.0000 
     21 H21        -2.1648    8.1032    1.2212 H         1 UNK         0.0000 
     22 H22        -0.7566    7.2589    1.6894 H         1 UNK         0.0000 
     23 C23        -2.7829    5.4294    1.7672 C.3       1 UNK         0.0000 
     24 H24        -3.1225    4.4229    1.4383 H         1 UNK         0.0000 
     25 O25        -3.9416    6.1424    2.1329 O.3       1 UNK         0.0000 
     26 C26        -1.9120    5.2292    3.0355 C.3       1 UNK         0.0000 
     27 C27        -0.7064    4.3268    2.8923 C.2       1 UNK         0.0000 
     28 O28         0.1364    4.5738    2.0422 O.2       1 UNK         0.0000 
     29 N29        -0.5097    3.3183    3.7919 N.am      1 UNK         0.0000 
     30 C30         0.7112    2.5246    3.8541 C.3       1 UNK         0.0000 
     31 H31         1.3025    2.6281    2.9179 H         1 UNK         0.0000 
     32 C32         1.5958    3.0698    4.9928 C.3       1 UNK         0.0000 
     33 O33         0.9227    3.0138    6.2230 O.3       1 UNK         0.0000 
     34 C34         0.4049    1.0599    4.1106 C.2       1 UNK         0.0000 
     35 O35        -0.2230    0.7673    5.1220 O.2       1 UNK         0.0000 
     36 N36         0.8779    0.0775    3.2867 N.am      1 UNK         0.0000 
     37 C37         0.7775   -1.3336    3.6330 C.3       1 UNK         0.0000 
     38 C38         0.0143   -2.1584    2.6278 C.2       1 UNK         0.0000 
     39 O39        -1.1419   -1.8575    2.3674 O.2       1 UNK         0.0000 
     40 N40         0.5646   -3.3074    2.1333 N.am      1 UNK         0.0000 
     41 C41        -0.2381   -4.3223    1.4612 C.3       1 UNK         0.0000 
     42 H42        -1.2320   -4.3643    1.9680 H         1 UNK         0.0000 
     43 C43         0.3650   -5.7306    1.6406 C.3       1 UNK         0.0000 
     44 C44         0.3830   -6.1350    3.1254 C.3       1 UNK         0.0000 
     45 C45         0.9018   -7.5613    3.3222 C.3       1 UNK         0.0000 
     46 N46         0.8677   -7.9271    4.7259 N.pl3     1 UNK         0.0000 
     47 C47         1.2756   -9.2114    5.1984 C.cat     1 UNK         0.0000 
     48 N48         1.7541  -10.2057    4.2967 N.pl3     1 UNK         0.0000 
     49 N49         1.2070   -9.4774    6.4573 N.pl3     1 UNK         0.0000 
     50 H50         0.8621   -8.7755    7.1294 H         1 UNK         0.0000 
     51 H51         1.4943  -10.3985    6.8209 H         1 UNK         0.0000 
     52 C52        -0.4848   -4.0159    0.0023 C.2       1 UNK         0.0000 
     53 O53        -1.6439   -3.8062   -0.3302 O.2       1 UNK         0.0000 
     54 N54         0.5154   -4.0260   -0.9377 N.am      1 UNK         0.0000 
     55 C55         0.2262   -3.8158   -2.3551 C.3       1 UNK         0.0000 
     56 H56        -0.8623   -3.6227   -2.4688 H         1 UNK         0.0000 
     57 C57         0.8893   -2.5338   -2.9440 C.3       1 UNK         0.0000 
     58 H58         0.8400   -1.7157   -2.1936 H         1 UNK         0.0000 
     59 O59         0.2075   -2.1076   -4.0800 O.co2     1 UNK         0.0000 
     60 C60         2.2232   -2.6615   -3.5385 C.2       1 UNK         0.0000 
     61 O61         2.2237   -2.3895   -4.8726 O.co2     1 UNK         0.0000 
     62 O62         3.2324   -2.9614   -2.9216 O.co2     1 UNK         0.0000 
     63 C63         0.5852   -5.0133   -3.2125 C.2       1 UNK         0.0000 
     64 O64         1.6975   -5.5138   -3.1141 O.2       1 UNK         0.0000 
     65 N65        -0.2530   -5.3760   -4.2217 N.am      1 UNK         0.0000 
     66 C66         0.1391   -6.2557   -5.3039 C.3       1 UNK         0.0000 
     67 C67         0.3086   -5.4202   -6.5585 C.2       1 UNK         0.0000 
     68 O68         1.3976   -5.4027   -7.1095 O.2       1 UNK         0.0000 
     69 N69        -0.7397   -4.6943   -7.0494 N.am      1 UNK         0.0000 
     70 C70        -0.7451   -3.8557   -8.2506 C.3       1 UNK         0.0000 
     71 H71        -1.7886   -3.4780   -8.3566 H         1 UNK         0.0000 
     72 C72        -0.4545   -4.6632   -9.4972 C.2       1 UNK         0.0000 
     73 O73         0.7476   -5.2355   -9.6963 O.3       1 UNK         0.0000 
     74 O74        -1.3208   -4.7954  -10.3476 O.2       1 UNK         0.0000 
     75 C75         0.1135   -2.5561   -8.1708 C.3       1 UNK         0.0000 
     76 H76        -0.0586   -1.9314   -9.0776 H         1 UNK         0.0000 
     77 O77        -0.1065   -1.8116   -6.9909 O.co2     1 UNK         0.0000 
     78 C78         1.5101   -2.6460   -7.9691 C.2       1 UNK         0.0000 
     79 O79         1.7517   -1.9045   -6.8486 O.co2     1 UNK         0.0000 
     80 O80         2.3624   -3.1110   -8.7081 O.co2     1 UNK         0.0000 
     81 H81         1.5453    5.1862   -5.2279 H         1 UNK         0.0000 
     82 H82         3.6153    4.6149   -6.3384 H         1 UNK         0.0000 
     83 H83         4.0949    2.2677   -6.9798 H         1 UNK         0.0000 
     84 H84        -0.4851    5.5455   -4.9224 H         1 UNK         0.0000 
     85 H85        -2.4446    4.4436   -2.8926 H         1 UNK         0.0000 
     86 H86        -2.8568    5.6427   -4.1751 H         1 UNK         0.0000 
     87 H87        -1.1476    7.2012   -3.3644 H         1 UNK         0.0000 
     88 H88        -0.6804    6.1205   -2.0140 H         1 UNK         0.0000 
     89 H89        -3.4906    7.3191   -2.5103 H         1 UNK         0.0000 
     90 H90        -2.2683    8.1015   -1.5031 H         1 UNK         0.0000 
     91 H91        -3.5379    5.3454   -0.9186 H         1 UNK         0.0000 
     92 H92        -3.9657    6.9295   -0.1972 H         1 UNK         0.0000 
     93 H93        -3.6626    7.0029    2.5411 H         1 UNK         0.0000 
     94 H94        -2.5679    4.8247    3.8370 H         1 UNK         0.0000 
     95 H95        -1.5656    6.2156    3.4059 H         1 UNK         0.0000 
     96 H96        -1.1929    3.2034    4.5569 H         1 UNK         0.0000 
     97 H97         2.5322    2.4700    5.0483 H         1 UNK         0.0000 
     98 H98         1.8535    4.1285    4.7650 H         1 UNK         0.0000 
     99 H99         1.5466    3.3866    6.8987 H         1 UNK         0.0000 
    100 H100        1.4021    0.3333    2.4366 H         1 UNK         0.0000 
    101 H101        0.2568   -1.4713    4.6045 H         1 UNK         0.0000 
    102 H102        1.8031   -1.7375    3.7685 H         1 UNK         0.0000 
    103 H103        1.5184   -3.5572    2.4383 H         1 UNK         0.0000 
    104 H104        1.3913   -5.7722    1.2153 H         1 UNK         0.0000 
    105 H105       -0.2736   -6.4599    1.0932 H         1 UNK         0.0000 
    106 H106        1.0225   -5.4376    3.7076 H         1 UNK         0.0000 
    107 H107       -0.6536   -6.0815    3.5263 H         1 UNK         0.0000 
    108 H108        1.9460   -7.6272    2.9466 H         1 UNK         0.0000 
    109 H109        0.2572   -8.2624    2.7483 H         1 UNK         0.0000 
    110 H110        0.5261   -7.2381    5.4156 H         1 UNK         0.0000 
    111 H111        1.8218  -10.0285    3.2855 H         1 UNK         0.0000 
    112 H112        2.0433  -11.1305    4.6453 H         1 UNK         0.0000 
    113 H113        1.4879   -4.2063   -0.6475 H         1 UNK         0.0000 
    114 H114       -1.1655   -4.9042   -4.3063 H         1 UNK         0.0000 
    115 H115       -0.6358   -7.0380   -5.4469 H         1 UNK         0.0000 
    116 H116        1.1011   -6.7687   -5.0844 H         1 UNK         0.0000 
    117 H117       -1.6380   -4.7617   -6.5472 H         1 UNK         0.0000 
    118 H118        0.7451   -5.7028  -10.5349 H         1 UNK         0.0000 
@<TRIPOS>BOND
     1    1    6 nc   
     2    1    8 nc   
     3    1   59 nc   
     4    1   61 nc   
     5    1   77 nc   
     6    1   79 nc   
     7    2    9 ar   
     8    2   81 1    
     9    2    3 ar   
    10    3    4 ar   
    11    3   82 1    
    12    4    5 ar   
    13    4   83 1    
    14    5    7 ar   
    15    5    6 1    
    16    7    8 1    
    17    7    9 ar   
    18    9   10 1    
    19   10   12 am   BACKBONE|DICT|INTERRES
    20   10   11 2    
    21   12   13 1    
    22   12   84 1    
    23   13   85 1    
    24   13   14 1    
    25   13   86 1    
    26   14   88 1    
    27   14   15 1    
    28   14   87 1    
    29   15   90 1    
    30   15   16 1    
    31   15   89 1    
    32   16   92 1    
    33   16   17 1    
    34   16   91 1    
    35   17   18 1    
    36   17   19 1    
    37   17   23 1    
    38   19   21 1    
    39   19   22 1    
    40   19   20 1    
    41   23   24 1    
    42   23   25 1    
    43   23   26 1    
    44   25   93 1    
    45   26   95 1    
    46   26   94 1    
    47   26   27 1    
    48   27   29 am   BACKBONE|DICT|INTERRES
    49   27   28 2    
    50   29   30 1    
    51   29   96 1    
    52   30   31 1    
    53   30   34 1    
    54   30   32 1    
    55   32   97 1    
    56   32   33 1    
    57   32   98 1    
    58   33   99 1    
    59   34   35 2    
    60   34   36 am   BACKBONE|DICT|INTERRES
    61   36   37 1    
    62   36  100 1    
    63   37  102 1    
    64   37  101 1    
    65   37   38 1    
    66   38   39 2    
    67   38   40 am   BACKBONE|DICT|INTERRES
    68   40  103 1    
    69   40   41 1    
    70   41   43 1    
    71   41   42 1    
    72   41   52 1    
    73   43   44 1    
    74   43  104 1    
    75   43  105 1    
    76   44   45 1    
    77   44  107 1    
    78   44  106 1    
    79   45   46 1    
    80   45  108 1    
    81   45  109 1    
    82   46   47 ar   
    83   46  110 1    
    84   47   49 ar   
    85   47   48 ar   
    86   48  112 1    
    87   48  111 1    
    88   49   51 1    
    89   49   50 1    
    90   52   53 2    
    91   52   54 am   BACKBONE|DICT|INTERRES
    92   54  113 1    
    93   54   55 1    
    94   55   56 1    
    95   55   57 1    
    96   55   63 1    
    97   57   58 1    
    98   57   59 1    
    99   57   60 1    
   100   60   62 2    
   101   60   61 1    
   102   63   64 2    
   103   63   65 am   BACKBONE|DICT|INTERRES
   104   65   66 1    
   105   65  114 1    
   106   66  116 1    
   107   66   67 1    
   108   66  115 1    
   109   67   68 2    
   110   67   69 am   BACKBONE|DICT|INTERRES
   111   69  117 1    
   112   69   70 1    
   113   70   71 1    
   114   70   75 1    
   115   70   72 1    
   116   72   73 1    
   117   72   74 2    
   118   73  118 1    
   119   75   76 1    
   120   75   78 1    
   121   75   77 1    
   122   78   79 1    
   123   78   80 2    
@<TRIPOS>SUBSTRUCTURE
     1 UNK         1 GROUP             0       ****    0 ROOT    
