@<TRIPOS>MOLECULE
054_D_c1
152   156    1
SMALL
USER_CHARGES


@<TRIPOS>ATOM
      1 O1         26.0207    9.0221   -9.5749 O.co2     1 UNK         0.0000 
      2 C2         25.2743    8.0360   -9.6530 C.2       1 UNK         0.0000 
      3 C3         25.5512    6.9992  -10.7514 C.3       1 UNK         0.0000 
      4 N4         24.2544    7.9464   -8.7433 N.am      1 UNK         0.0000 
      5 O5         24.0743    8.9153   -7.8113 O.co2     1 UNK         0.0000 
      6 C6         23.1140    6.9876   -8.7847 C.3       1 UNK         0.0000 
      7 C7         23.2196    5.5532   -9.3863 C.3       1 UNK         0.0000 
      8 C8         24.0367    4.5153   -8.5578 C.3       1 UNK         0.0000 
      9 C9         24.1135    3.0494   -9.1618 C.3       1 UNK         0.0000 
     10 H10        24.8500    3.0008   -9.9758 H         1 UNK         0.0000 
     11 C11        22.7455    2.5859   -9.7857 C.2       1 UNK         0.0000 
     12 O12        21.9076    2.0896   -9.0058 O.co2     1 UNK         0.0000 
     13 O13        22.6501    2.8379  -11.0214 O.co2     1 UNK         0.0000 
     14 N14        24.4435    2.0957   -8.0825 N.am      1 UNK         0.0000 
     15 C15        25.6455    1.6510   -7.7039 C.2       1 UNK         0.0000 
     16 O16        26.6800    1.7568   -8.3629 O.2       1 UNK         0.0000 
     17 C17        25.7165    1.1455   -6.2539 C.3       1 UNK         0.0000 
     18 H18        24.7038    1.1763   -5.8547 H         1 UNK         0.0000 
     19 C19        26.2442   -0.3036   -6.0535 C.3       1 UNK         0.0000 
     20 O20        27.6614   -0.3978   -6.1041 O.3       1 UNK         0.0000 
     21 N21        26.5606    2.0811   -5.5219 N.am      1 UNK         0.0000 
     22 C22        26.1786    3.3262   -5.2113 C.2       1 UNK         0.0000 
     23 O23        25.0018    3.6899   -5.2009 O.2       1 UNK         0.0000 
     24 C24        27.2658    4.3426   -4.8219 C.3       1 UNK         0.0000 
     25 H25        28.1937    3.8237   -4.5620 H         1 UNK         0.0000 
     26 C26        27.5705    5.3217   -5.9850 C.3       1 UNK         0.0000 
     27 C27        28.5733    6.4428   -5.5607 C.3       1 UNK         0.0000 
     28 C28        29.0381    7.4280   -6.6724 C.3       1 UNK         0.0000 
     29 N29        28.1343    8.5553   -7.0618 N.am      1 UNK         0.0000 
     30 O30        26.8246    8.3611   -6.8630 O.co2     1 UNK         0.0000 
     31 C31        28.5942    9.6589   -7.7174 C.2       1 UNK         0.0000 
     32 O32        27.7758   10.4710   -8.1848 O.co2     1 UNK         0.0000 
     33 C33        30.0910    9.8867   -7.9127 C.3       1 UNK         0.0000 
     34 N34        26.7633    5.0655   -3.6580 N.am      1 UNK         0.0000 
     35 C35        26.8054    4.5842   -2.4092 C.2       1 UNK         0.0000 
     36 O36        27.4033    3.5527   -2.1183 O.2       1 UNK         0.0000 
     37 C37        26.0842    5.4122   -1.3239 C.3       1 UNK         0.0000 
     38 H38        25.0125    5.2588   -1.4682 H         1 UNK         0.0000 
     39 C39        26.4667    5.0847    0.1512 C.3       1 UNK         0.0000 
     40 C40        26.2411    3.6353    0.6583 C.3       1 UNK         0.0000 
     41 C41        24.8203    3.1324    0.4215 C.2       1 UNK         0.0000 
     42 O42        23.9268    3.3700    1.2222 O.2       1 UNK         0.0000 
     43 N43        24.5830    2.4475   -0.6865 N.am      1 UNK         0.0000 
     44 N44        26.3819    6.8134   -1.5947 N.am      1 UNK         0.0000 
     45 C45        25.5138    7.8309   -1.5583 C.2       1 UNK         0.0000 
     46 O46        24.3621    7.7379   -1.1414 O.2       1 UNK         0.0000 
     47 C47        26.0616    9.1459   -2.1299 C.3       1 UNK         0.0000 
     48 H48        27.0442    9.2222   -1.6685 H         1 UNK         0.0000 
     49 C49        26.2277    9.0528   -3.6628 C.3       1 UNK         0.0000 
     50 O50        27.5547    9.3111   -4.0590 O.3       1 UNK         0.0000 
     51 N51        25.2748   10.3383   -1.8150 N.am      1 UNK         0.0000 
     52 C52        25.8504   11.4884   -1.4422 C.2       1 UNK         0.0000 
     53 O53        27.0172   11.5746   -1.0497 O.2       1 UNK         0.0000 
     54 C54        25.0276   12.7836   -1.6075 C.3       1 UNK         0.0000 
     55 H55        23.9604   12.5680   -1.5382 H         1 UNK         0.0000 
     56 C56        25.4445   13.8302   -0.5555 C.3       1 UNK         0.0000 
     57 O57        24.6259   14.9917   -0.5929 O.3       1 UNK         0.0000 
     58 N58        25.3697   13.3280   -2.9111 N.am      1 UNK         0.0000 
     59 C59        24.7499   13.1090   -4.0708 C.2       1 UNK         0.0000 
     60 O60        23.6298   12.6011   -4.1654 O.2       1 UNK         0.0000 
     61 C61        25.5736   13.6046   -5.2868 C.3       1 UNK         0.0000 
     62 H62        26.5898   13.5136   -4.9018 H         1 UNK         0.0000 
     63 C63        25.7752   12.5679   -6.5095 C.3       1 UNK         0.0000 
     64 O64        25.8962   11.1912   -6.1421 O.co2     1 UNK         0.0000 
     65 C65        24.8884   12.6980   -7.7974 C.2       1 UNK         0.0000 
     66 O66        25.0510   11.7124   -8.6128 O.co2     1 UNK         0.0000 
     67 O67        24.2547   13.7450   -8.0222 O.co2     1 UNK         0.0000 
     68 N68        25.4272   15.0831   -5.4784 N.am      1 UNK         0.0000 
     69 C69        26.1002   16.0103   -4.7236 C.2       1 UNK         0.0000 
     70 O70        27.0141   15.6662   -3.9667 O.2       1 UNK         0.0000 
     71 C71        25.8101   17.5504   -4.7868 C.3       1 UNK         0.0000 
     72 C72        24.7485   18.1216   -3.7835 C.3       1 UNK         0.0000 
     73 C73        24.0736   19.4953   -4.1148 C.3       1 UNK         0.0000 
     74 C74        24.7276   20.8953   -3.7907 C.3       1 UNK         0.0000 
     75 C75        24.7973   21.4630   -2.3122 C.3       1 UNK         0.0000 
     76 C76        24.3730   22.9811   -2.1219 C.3       1 UNK         0.0000 
     77 C77        24.9234   23.7038   -0.8410 C.3       1 UNK         0.0000 
     78 C78        23.9574   24.6655   -0.0685 C.3       1 UNK         0.0000 
     79 C79        23.8596   26.1764   -0.4726 C.3       1 UNK         0.0000 
     80 C80        24.7070   27.1785    0.3765 C.3       1 UNK         0.0000 
     81 C81        24.1151   28.6191    0.4483 C.3       1 UNK         0.0000 
     82 C82        24.9626   29.6201    1.2709 C.3       1 UNK         0.0000 
     83 C83        24.2879   30.9953    1.4687 C.3       1 UNK         0.0000 
     84 H84        26.4604    7.2637  -11.2903 H         1 UNK         0.0000 
     85 H85        24.7325    6.9799  -11.4735 H         1 UNK         0.0000 
     86 H86        25.7099    6.0005  -10.3374 H         1 UNK         0.0000 
     87 H87        22.2949    7.4967   -9.2910 H         1 UNK         0.0000 
     88 H88        22.7828    6.8254   -7.7543 H         1 UNK         0.0000 
     89 H89        23.4816    5.5316  -10.4450 H         1 UNK         0.0000 
     90 H90        22.1898    5.2025   -9.3843 H         1 UNK         0.0000 
     91 H91        25.0566    4.8654   -8.3981 H         1 UNK         0.0000 
     92 H92        23.5996    4.4607   -7.5476 H         1 UNK         0.0000 
     93 H93        23.6096    1.8424   -7.5659 H         1 UNK         0.0000 
     94 H94        25.9346   -0.6822   -5.0805 H         1 UNK         0.0000 
     95 H95        25.7875   -0.9676   -6.7860 H         1 UNK         0.0000 
     96 H96        27.9095   -0.9142   -6.8798 H         1 UNK         0.0000 
     97 H97        27.5258    1.8018   -5.5260 H         1 UNK         0.0000 
     98 H98        26.6439    5.7697   -6.3490 H         1 UNK         0.0000 
     99 H99        27.9680    4.7441   -6.8227 H         1 UNK         0.0000 
    100 H100       28.1556    7.0202   -4.7352 H         1 UNK         0.0000 
    101 H101       29.4520    5.9459   -5.1469 H         1 UNK         0.0000 
    102 H102       30.0210    7.7959   -6.3567 H         1 UNK         0.0000 
    103 H103       29.2342    6.8472   -7.5737 H         1 UNK         0.0000 
    104 H104       30.5839   10.0373   -6.9627 H         1 UNK         0.0000 
    105 H105       30.2360   10.7766   -8.5082 H         1 UNK         0.0000 
    106 H106       30.5799    9.0651   -8.4165 H         1 UNK         0.0000 
    107 H107       26.1200    5.8134   -3.8783 H         1 UNK         0.0000 
    108 H108       25.8866    5.7531    0.7924 H         1 UNK         0.0000 
    109 H109       27.5149    5.3454    0.3090 H         1 UNK         0.0000 
    110 H110       26.4412    3.5847    1.7297 H         1 UNK         0.0000 
    111 H111       26.9540    2.9421    0.2116 H         1 UNK         0.0000 
    112 H112       25.3049    2.3383   -1.3853 H         1 UNK         0.0000 
    113 H113       23.6331    2.1791   -0.8793 H         1 UNK         0.0000 
    114 H114       27.2829    6.9916   -2.0160 H         1 UNK         0.0000 
    115 H115       25.5699    9.7502   -4.1727 H         1 UNK         0.0000 
    116 H116       25.9598    8.0689   -4.0539 H         1 UNK         0.0000 
    117 H117       27.4833    9.4513   -5.0165 H         1 UNK         0.0000 
    118 H118       24.3204   10.3478   -2.1384 H         1 UNK         0.0000 
    119 H119       26.4871   14.1103   -0.6920 H         1 UNK         0.0000 
    120 H120       25.3550   13.3766    0.4275 H         1 UNK         0.0000 
    121 H121       25.1266   15.7200   -0.2127 H         1 UNK         0.0000 
    122 H122       26.2544   13.8167   -2.9726 H         1 UNK         0.0000 
    123 H123       24.6614   15.3035   -6.1062 H         1 UNK         0.0000 
    124 H124       26.7458   18.0797   -4.5681 H         1 UNK         0.0000 
    125 H125       25.5583   17.8253   -5.8090 H         1 UNK         0.0000 
    126 H126       25.1226   18.1617   -2.7666 H         1 UNK         0.0000 
    127 H127       23.9287   17.4070   -3.7608 H         1 UNK         0.0000 
    128 H128       23.1130   19.4893   -3.5980 H         1 UNK         0.0000 
    129 H129       23.8045   19.4778   -5.1809 H         1 UNK         0.0000 
    130 H130       24.0845   21.5764   -4.3515 H         1 UNK         0.0000 
    131 H131       25.7141   20.9719   -4.2580 H         1 UNK         0.0000 
    132 H132       25.8347   21.3547   -1.9868 H         1 UNK         0.0000 
    133 H133       24.2168   20.8469   -1.6124 H         1 UNK         0.0000 
    134 H134       23.2835   23.0401   -2.1089 H         1 UNK         0.0000 
    135 H135       24.6711   23.5694   -2.9923 H         1 UNK         0.0000 
    136 H136       25.8509   24.2318   -1.0581 H         1 UNK         0.0000 
    137 H137       25.2147   22.9321   -0.1299 H         1 UNK         0.0000 
    138 H138       24.2121   24.6197    0.9934 H         1 UNK         0.0000 
    139 H139       22.9502   24.2455   -0.1011 H         1 UNK         0.0000 
    140 H140       22.8134   26.4707   -0.3495 H         1 UNK         0.0000 
    141 H141       24.0646   26.3183   -1.5342 H         1 UNK         0.0000 
    142 H142       24.8042   26.8078    1.3999 H         1 UNK         0.0000 
    143 H143       25.7235   27.2263   -0.0206 H         1 UNK         0.0000 
    144 H144       23.9752   29.0134   -0.5615 H         1 UNK         0.0000 
    145 H145       23.1152   28.5710    0.8859 H         1 UNK         0.0000 
    146 H146       25.9307   29.7652    0.7912 H         1 UNK         0.0000 
    147 H147       25.1816   29.1923    2.2504 H         1 UNK         0.0000 
    148 H148       24.0710   31.4822    0.5175 H         1 UNK         0.0000 
    149 H149       24.9210   31.6774    2.0373 H         1 UNK         0.0000 
    150 H150       23.3476   30.9086    2.0137 H         1 UNK         0.0000 
    151 Fe151      25.8684    9.9473   -7.8349 Fe        1 UNK         0.0000 
    152 H152       26.7215   12.9214   -6.9389 H         1 UNK         0.0000 
@<TRIPOS>BOND
     1    1    2 2    
     2    1  151 nc   
     3    2    3 1    
     4    2    4 am   BACKBONE|DICT|INTERRES
     5    3   84 1    
     6    3   85 1    
     7    3   86 1    
     8    4    5 1    
     9    4    6 1    
    10    5  151 nc   
    11    6    7 1    
    12    6   87 1    
    13    6   88 1    
    14    7    8 1    
    15    7   89 1    
    16    7   90 1    
    17    8   91 1    
    18    8   92 1    
    19    8    9 1    
    20    9   11 1    
    21    9   14 1    
    22    9   10 1    
    23   11   12 1    
    24   11   13 2    
    25   14   15 am   BACKBONE|DICT|INTERRES
    26   14   93 1    
    27   15   16 2    
    28   15   17 1    
    29   17   18 1    
    30   17   19 1    
    31   17   21 1    
    32   19   20 1    
    33   19   94 1    
    34   19   95 1    
    35   20   96 1    
    36   21   22 am   BACKBONE|DICT|INTERRES
    37   21   97 1    
    38   22   23 2    
    39   22   24 1    
    40   24   25 1    
    41   24   26 1    
    42   24   34 1    
    43   26   27 1    
    44   26   98 1    
    45   26   99 1    
    46   27   28 1    
    47   27  100 1    
    48   27  101 1    
    49   28   29 1    
    50   28  102 1    
    51   28  103 1    
    52   29   30 1    
    53   29   31 am   BACKBONE|DICT|INTERRES
    54   30  151 nc   
    55   31   32 2    
    56   31   33 1    
    57   32  151 nc   
    58   33  104 1    
    59   33  105 1    
    60   33  106 1    
    61   34   35 am   BACKBONE|DICT|INTERRES
    62   34  107 1    
    63   35   36 2    
    64   35   37 1    
    65   37   38 1    
    66   37   39 1    
    67   37   44 1    
    68   39   40 1    
    69   39  108 1    
    70   39  109 1    
    71   40   41 1    
    72   40  110 1    
    73   40  111 1    
    74   41   42 2    
    75   41   43 am   BACKBONE|DICT|INTERRES
    76   43  112 1    
    77   43  113 1    
    78   44   45 am   BACKBONE|DICT|INTERRES
    79   44  114 1    
    80   45   46 2    
    81   45   47 1    
    82   47   48 1    
    83   47   49 1    
    84   47   51 1    
    85   49   50 1    
    86   49  115 1    
    87   49  116 1    
    88   50  117 1    
    89   51   52 am   BACKBONE|DICT|INTERRES
    90   51  118 1    
    91   52   53 2    
    92   52   54 1    
    93   54   55 1    
    94   54   56 1    
    95   54   58 1    
    96   56   57 1    
    97   56  119 1    
    98   56  120 1    
    99   57  121 1    
   100   58   59 am   BACKBONE|DICT|INTERRES
   101   58  122 1    
   102   59   60 2    
   103   59   61 1    
   104   61   62 1    
   105   61   68 1    
   106   61   63 1    
   107   63   64 1    
   108   63   65 1    
   109   63  152 1    
   110   64  151 nc   
   111   65   66 1    
   112   65   67 2    
   113   66  151 nc   
   114   68   69 am   BACKBONE|DICT|INTERRES
   115   68  123 1    
   116   69   70 2    
   117   69   71 1    
   118   71   72 1    
   119   71  124 1    
   120   71  125 1    
   121   72   73 1    
   122   72  126 1    
   123   72  127 1    
   124   73   74 1    
   125   73  128 1    
   126   73  129 1    
   127   74   75 1    
   128   74  130 1    
   129   74  131 1    
   130   75   76 1    
   131   75  132 1    
   132   75  133 1    
   133   76   77 1    
   134   76  134 1    
   135   76  135 1    
   136   77   78 1    
   137   77  136 1    
   138   77  137 1    
   139   78   79 1    
   140   78  138 1    
   141   78  139 1    
   142   79   80 1    
   143   79  140 1    
   144   79  141 1    
   145   80   81 1    
   146   80  142 1    
   147   80  143 1    
   148   81   82 1    
   149   81  144 1    
   150   81  145 1    
   151   82   83 1    
   152   82  146 1    
   153   82  147 1    
   154   83  148 1    
   155   83  149 1    
   156   83  150 1    
@<TRIPOS>SUBSTRUCTURE
     1 UNK         1 GROUP             0       ****    0 ROOT    
