@<TRIPOS>MOLECULE
065_c1
139   144    1
SMALL
USER_CHARGES


@<TRIPOS>ATOM
      1 Fe1         0.3606    3.4765   -0.0662 Fe        1 UNK         0.0000 
      2 O2          5.3880    6.2235   -5.6787 O.3       1 UNK         0.0000 
      3 C3          4.1332    5.9946   -6.2994 C.3       1 UNK         0.0000 
      4 C4          2.9536    6.5441   -5.4698 C.3       1 UNK         0.0000 
      5 C5          2.5265    5.7219   -4.2496 C.2       1 UNK         0.0000 
      6 C6          3.5772    5.7805   -3.1246 C.3       1 UNK         0.0000 
      7 C7          1.3325    5.0507   -4.1940 C.2       1 UNK         0.0000 
      8 C8          0.3022    5.0255   -5.3231 C.3       1 UNK         0.0000 
      9 C9          0.9213    4.3546   -2.9824 C.2       1 UNK         0.0000 
     10 O10         0.8633    4.9569   -1.8950 O.co2     1 UNK         0.0000 
     11 N11         0.7902    2.9871   -2.9740 N.am      1 UNK         0.0000 
     12 O12         1.0751    2.3531   -1.8654 O.co2     1 UNK         0.0000 
     13 C13         0.1059    2.1107   -3.9593 C.3       1 UNK         0.0000 
     14 C14        -0.0650    0.5686   -3.6181 C.3       1 UNK         0.0000 
     15 C15        -1.0185    0.1939   -2.4274 C.3       1 UNK         0.0000 
     16 C16        -1.0400   -1.2789   -1.8668 C.3       1 UNK         0.0000 
     17 H17        -1.5964   -1.8607   -2.6038 H         1 UNK         0.0000 
     18 C18         0.3371   -1.9866   -1.7758 C.2       1 UNK         0.0000 
     19 O19         1.3538   -1.3574   -1.5187 O.2       1 UNK         0.0000 
     20 N20         0.3472   -3.3109   -1.9974 N.am      1 UNK         0.0000 
     21 C21         1.5627   -4.1319   -1.9617 C.3       1 UNK         0.0000 
     22 H22         2.4384   -3.5244   -1.7148 H         1 UNK         0.0000 
     23 C23         1.8002   -4.7487   -3.3707 C.3       1 UNK         0.0000 
     24 O24         2.9116   -5.6259   -3.4841 O.3       1 UNK         0.0000 
     25 C25         1.4187   -5.1541   -0.8242 C.2       1 UNK         0.0000 
     26 O26         2.1196   -5.0374    0.1730 O.2       1 UNK         0.0000 
     27 N27         0.4835   -6.1057   -0.9853 N.am      1 UNK         0.0000 
     28 C28         0.1102   -7.1675   -0.0439 C.3       1 UNK         0.0000 
     29 H29        -0.7339   -7.6553   -0.5340 H         1 UNK         0.0000 
     30 C30         1.1845   -8.2879    0.0661 C.3       1 UNK         0.0000 
     31 O31         2.3961   -7.8996    0.6849 O.3       1 UNK         0.0000 
     32 C32        -0.4840   -6.6477    1.2812 C.2       1 UNK         0.0000 
     33 O33        -1.7022   -6.7367    1.4406 O.2       1 UNK         0.0000 
     34 N34         0.3395   -6.1180    2.1882 N.am      1 UNK         0.0000 
     35 C35        -0.1069   -5.5268    3.4410 C.3       1 UNK         0.0000 
     36 C36         0.5283   -4.1437    3.5396 C.2       1 UNK         0.0000 
     37 O37         1.7199   -4.0629    3.8231 O.2       1 UNK         0.0000 
     38 N38        -0.2664   -3.0710    3.3848 N.am      1 UNK         0.0000 
     39 C39         0.1166   -1.7091    3.7770 C.3       1 UNK         0.0000 
     40 H40         0.4341   -1.8520    4.8137 H         1 UNK         0.0000 
     41 C41         1.4028   -1.0838    3.1327 C.3       1 UNK         0.0000 
     42 C42         1.6960    0.3944    3.5349 C.3       1 UNK         0.0000 
     43 C43         2.7308    1.1637    2.6414 C.3       1 UNK         0.0000 
     44 N44         2.1552    2.3700    2.0153 N.am      1 UNK         0.0000 
     45 O45         1.0843    2.0435    1.3392 O.co2     1 UNK         0.0000 
     46 C46         2.5561    3.6715    2.0536 C.2       1 UNK         0.0000 
     47 O47         1.8704    4.4866    1.4036 O.co2     1 UNK         0.0000 
     48 C48         3.8154    4.1634    2.7781 C.3       1 UNK         0.0000 
     49 C49         3.5856    5.1375    3.9627 C.3       1 UNK         0.0000 
     50 O50         2.8410    6.2677    3.5586 O.3       1 UNK         0.0000 
     51 C51         2.7727    4.4925    5.1022 C.3       1 UNK         0.0000 
     52 C52         4.9497    5.6859    4.4471 C.3       1 UNK         0.0000 
     53 C53         4.9206    6.7567    5.5569 C.3       1 UNK         0.0000 
     54 O54         6.2463    7.1342    5.8776 O.3       1 UNK         0.0000 
     55 C55        -1.0925   -0.7557    3.9630 C.2       1 UNK         0.0000 
     56 O56        -1.1854   -0.1930    5.0521 O.2       1 UNK         0.0000 
     57 N57        -2.0768   -0.5073    3.0782 N.am      1 UNK         0.0000 
     58 C58        -2.5116   -0.9191    1.7322 C.3       1 UNK         0.0000 
     59 H59        -2.8359   -1.9559    1.8381 H         1 UNK         0.0000 
     60 C60        -1.4685   -0.8782    0.5884 C.2       1 UNK         0.0000 
     61 O61        -0.4159   -0.3102    0.7816 O.2       1 UNK         0.0000 
     62 N62        -1.8135   -1.4077   -0.6065 N.am      1 UNK         0.0000 
     63 C63        -3.7574   -0.0384    1.3736 C.3       1 UNK         0.0000 
     64 C64        -3.5425    1.3970    0.7875 C.3       1 UNK         0.0000 
     65 C65        -2.7652    2.4766    1.6208 C.3       1 UNK         0.0000 
     66 N66        -2.0028    3.4509    0.7984 N.pl3     1 UNK         0.0000 
     67 O67        -1.2715    2.8514   -0.1200 O.co2     1 UNK         0.0000 
     68 C68        -1.7519    4.7577    1.0891 C.1       1 UNK         0.0000 
     69 O69        -0.7237    5.2057    0.5572 O.co2     1 UNK         0.0000 
     70 C70        -2.7187    5.5810    1.7900 C.2       1 UNK         0.0000 
     71 C71        -2.4535    7.0852    2.0180 C.3       1 UNK         0.0000 
     72 C72        -1.8875    7.8632    0.7935 C.3       1 UNK         0.0000 
     73 C73        -3.6735    7.8423    2.6184 C.3       1 UNK         0.0000 
     74 C74        -3.3360    8.8918    3.7006 C.3       1 UNK         0.0000 
     75 O75        -2.5288    9.9302    3.1827 O.3       1 UNK         0.0000 
     76 H76         5.4831    7.1594   -5.4863 H         1 UNK         0.0000 
     77 H77         4.0090    4.9251   -6.4890 H         1 UNK         0.0000 
     78 H78         4.1631    6.4812   -7.2808 H         1 UNK         0.0000 
     79 H79         2.1193    6.6686   -6.1535 H         1 UNK         0.0000 
     80 H80         3.1800    7.5560   -5.1440 H         1 UNK         0.0000 
     81 H81         4.5249    5.3570   -3.4545 H         1 UNK         0.0000 
     82 H82         3.3135    5.2361   -2.2193 H         1 UNK         0.0000 
     83 H83         3.7593    6.8151   -2.8330 H         1 UNK         0.0000 
     84 H84        -0.6436    4.5661   -5.0459 H         1 UNK         0.0000 
     85 H85         0.7055    4.4942   -6.1804 H         1 UNK         0.0000 
     86 H86         0.0635    6.0421   -5.6160 H         1 UNK         0.0000 
     87 H87         0.6724    2.1904   -4.8883 H         1 UNK         0.0000 
     88 H88        -0.8892    2.5073   -4.1874 H         1 UNK         0.0000 
     89 H89         0.9406    0.2037   -3.4249 H         1 UNK         0.0000 
     90 H90        -0.3952    0.0436   -4.5093 H         1 UNK         0.0000 
     91 H91        -2.0387    0.4479   -2.7181 H         1 UNK         0.0000 
     92 H92        -0.7879    0.8416   -1.5913 H         1 UNK         0.0000 
     93 H93        -0.5253   -3.7875   -2.1318 H         1 UNK         0.0000 
     94 H94         0.9164   -5.2859   -3.7148 H         1 UNK         0.0000 
     95 H95         1.9597   -3.9342   -4.0800 H         1 UNK         0.0000 
     96 H96         2.9462   -6.2069   -2.7199 H         1 UNK         0.0000 
     97 H97        -0.0658   -6.0882   -1.8249 H         1 UNK         0.0000 
     98 H98         0.7748   -9.1187    0.6429 H         1 UNK         0.0000 
     99 H99         1.4069   -8.6909   -0.9228 H         1 UNK         0.0000 
    100 H100        3.0415   -8.6099    0.6211 H         1 UNK         0.0000 
    101 H101        1.3286   -6.0378    1.9546 H         1 UNK         0.0000 
    102 H102       -1.1924   -5.4728    3.5389 H         1 UNK         0.0000 
    103 H103        0.2543   -6.1392    4.2688 H         1 UNK         0.0000 
    104 H104       -1.2445   -3.2053    3.1934 H         1 UNK         0.0000 
    105 H105        2.2710   -1.6601    3.4524 H         1 UNK         0.0000 
    106 H106        1.3792   -1.2102    2.0502 H         1 UNK         0.0000 
    107 H107        1.9718    0.4752    4.5854 H         1 UNK         0.0000 
    108 H108        0.7604    0.9475    3.4807 H         1 UNK         0.0000 
    109 H109        3.6443    1.3574    3.2055 H         1 UNK         0.0000 
    110 H110        3.0539    0.5225    1.8130 H         1 UNK         0.0000 
    111 H111        4.4373    4.6493    2.0271 H         1 UNK         0.0000 
    112 H112        4.4176    3.3256    3.1112 H         1 UNK         0.0000 
    113 H113        2.4134    6.6453    4.3280 H         1 UNK         0.0000 
    114 H114        3.3038    3.6343    5.5162 H         1 UNK         0.0000 
    115 H115        1.8082    4.1276    4.7449 H         1 UNK         0.0000 
    116 H116        2.5627    5.1751    5.9270 H         1 UNK         0.0000 
    117 H117        5.5739    4.8544    4.7802 H         1 UNK         0.0000 
    118 H118        5.4779    6.1172    3.5928 H         1 UNK         0.0000 
    119 H119        4.4124    6.3851    6.4492 H         1 UNK         0.0000 
    120 H120        4.3408    7.6293    5.2419 H         1 UNK         0.0000 
    121 H121        6.2337    7.8551    6.5169 H         1 UNK         0.0000 
    122 H122       -2.6671    0.2236    3.4345 H         1 UNK         0.0000 
    123 H123       -2.7117   -1.8493   -0.6832 H         1 UNK         0.0000 
    124 H124       -4.4313    0.0238    2.2281 H         1 UNK         0.0000 
    125 H125       -4.3220   -0.5888    0.6191 H         1 UNK         0.0000 
    126 H126       -4.5113    1.8262    0.5306 H         1 UNK         0.0000 
    127 H127       -3.0811    1.2532   -0.1845 H         1 UNK         0.0000 
    128 H128       -3.4104    2.9171    2.3773 H         1 UNK         0.0000 
    129 H129       -1.9994    1.9776    2.2127 H         1 UNK         0.0000 
    130 H130       -3.6361    5.1381    2.1504 H         1 UNK         0.0000 
    131 H131       -2.0980    8.9339    0.8163 H         1 UNK         0.0000 
    132 H132       -0.7997    7.7842    0.7389 H         1 UNK         0.0000 
    133 H133       -2.2881    7.4868   -0.1501 H         1 UNK         0.0000 
    134 H134       -4.3606    7.1345    3.0839 H         1 UNK         0.0000 
    135 H135       -4.2645    8.3114    1.8280 H         1 UNK         0.0000 
    136 H136       -4.2381    9.3020    4.1642 H         1 UNK         0.0000 
    137 H137       -2.7501    8.4242    4.4963 H         1 UNK         0.0000 
    138 H138       -3.0252   10.4192    2.5198 H         1 UNK         0.0000 
    139 H139       -1.6747    7.0991    2.7808 H         1 UNK         0.0000 
@<TRIPOS>BOND
     1    1   10 nc   
     2    1   12 nc   
     3    1   45 nc   
     4    1   47 nc   
     5    1   67 nc   
     6    1   69 nc   
     7    2    3 1    
     8    2   76 1    
     9    3    4 1    
    10    3   77 1    
    11    3   78 1    
    12    4   80 1    
    13    4    5 1    
    14    4   79 1    
    15    5    7 2    
    16    5    6 1    
    17    6   83 1    
    18    6   82 1    
    19    6   81 1    
    20    7    8 1    
    21    7    9 1    
    22    8   84 1    
    23    8   85 1    
    24    8   86 1    
    25    9   11 am   BACKBONE|DICT|INTERRES
    26    9   10 2    
    27   11   12 1    
    28   11   13 1    
    29   13   14 1    
    30   13   87 1    
    31   13   88 1    
    32   14   89 1    
    33   14   15 1    
    34   14   90 1    
    35   15   16 1    
    36   15   92 1    
    37   15   91 1    
    38   16   17 1    
    39   16   18 1    
    40   16   62 1    
    41   18   19 2    
    42   18   20 am   BACKBONE|DICT|INTERRES
    43   20   21 1    
    44   20   93 1    
    45   21   22 1    
    46   21   25 1    
    47   21   23 1    
    48   23   24 1    
    49   23   94 1    
    50   23   95 1    
    51   24   96 1    
    52   25   26 2    
    53   25   27 am   BACKBONE|DICT|INTERRES
    54   27   28 1    
    55   27   97 1    
    56   28   29 1    
    57   28   30 1    
    58   28   32 1    
    59   30   31 1    
    60   30   98 1    
    61   30   99 1    
    62   31  100 1    
    63   32   33 2    
    64   32   34 am   BACKBONE|DICT|INTERRES
    65   34   35 1    
    66   34  101 1    
    67   35  102 1    
    68   35   36 1    
    69   35  103 1    
    70   36   37 2    
    71   36   38 am   BACKBONE|DICT|INTERRES
    72   38   39 1    
    73   38  104 1    
    74   39   55 1    
    75   39   40 1    
    76   39   41 1    
    77   41  105 1    
    78   41   42 1    
    79   41  106 1    
    80   42  107 1    
    81   42   43 1    
    82   42  108 1    
    83   43  109 1    
    84   43   44 1    
    85   43  110 1    
    86   44   46 am   BACKBONE|DICT|INTERRES
    87   44   45 1    
    88   46   48 1    
    89   46   47 2    
    90   48  112 1    
    91   48   49 1    
    92   48  111 1    
    93   49   50 1    
    94   49   52 1    
    95   49   51 1    
    96   50  113 1    
    97   51  114 1    
    98   51  116 1    
    99   51  115 1    
   100   52  117 1    
   101   52   53 1    
   102   52  118 1    
   103   53   54 1    
   104   53  119 1    
   105   53  120 1    
   106   54  121 1    
   107   55   56 2    
   108   55   57 am   BACKBONE|DICT|INTERRES
   109   57  122 1    
   110   57   58 1    
   111   58   59 1    
   112   58   60 1    
   113   58   63 1    
   114   60   61 2    
   115   60   62 am   BACKBONE|DICT|INTERRES
   116   62  123 1    
   117   63  124 1    
   118   63   64 1    
   119   63  125 1    
   120   64   65 1    
   121   64  126 1    
   122   64  127 1    
   123   65  129 1    
   124   65  128 1    
   125   65   66 1    
   126   66   68 1    
   127   66   67 1    
   128   68   70 2    
   129   68   69 2    
   130   70  130 1    
   131   70   71 1    
   132   71   73 1    
   133   71   72 1    
   134   71  139 1    
   135   72  132 1    
   136   72  131 1    
   137   72  133 1    
   138   73  134 1    
   139   73   74 1    
   140   73  135 1    
   141   74  136 1    
   142   74  137 1    
   143   74   75 1    
   144   75  138 1    
@<TRIPOS>SUBSTRUCTURE
     1 UNK         1 GROUP             0       ****    0 ROOT    
