@<TRIPOS>MOLECULE
270_c1
107   112    1
SMALL
USER_CHARGES


@<TRIPOS>ATOM
      1 C1        -15.3401    2.6436   13.4852 C.ar      1 UNK         0.0000 
      2 C2        -15.3423    2.0184   14.7309 C.ar      1 UNK         0.0000 
      3 C3        -16.3161    1.0664   15.0269 C.ar      1 UNK         0.0000 
      4 C4        -17.2856    0.7362   14.0837 C.ar      1 UNK         0.0000 
      5 C5        -17.2851    1.3588   12.8370 C.ar      1 UNK         0.0000 
      6 C6        -16.3135    2.3184   12.5233 C.ar      1 UNK         0.0000 
      7 N7        -16.4116    2.8988   11.2342 N.am      1 UNK         0.0000 
      8 C8        -15.5935    3.7988   10.6407 C.2       1 UNK         0.0000 
      9 O9        -14.5789    4.2471   11.1507 O.2       1 UNK         0.0000 
     10 C10       -15.9375    4.3106    9.2269 C.3       1 UNK         0.0000 
     11 C11       -17.2161    3.7264    8.5633 C.3       1 UNK         0.0000 
     12 C12       -17.4656    4.1971    7.1176 C.2       1 UNK         0.0000 
     13 O13       -18.3062    3.6054    6.4532 O.2       1 UNK         0.0000 
     14 N14       -16.7582    5.2293    6.6208 N.am      1 UNK         0.0000 
     15 C15       -16.7816    5.7077    5.2351 C.3       1 UNK         0.0000 
     16 C16       -18.1438    6.2076    4.7171 C.3       1 UNK         0.0000 
     17 C17       -18.0625    6.7416    3.2689 C.3       1 UNK         0.0000 
     18 C18       -19.3926    7.3119    2.7354 C.3       1 UNK         0.0000 
     19 C19       -19.8657    8.5245    3.5614 C.3       1 UNK         0.0000 
     20 N20       -20.6775    9.4999    2.8133 N.am      1 UNK         0.0000 
     21 O21       -21.9824    9.4281    3.0996 O.co2     1 UNK         0.0000 
     22 C22       -20.1221   10.5282    2.1229 C.2       1 UNK         0.0000 
     23 O23       -20.8385   11.5130    1.9089 O.co2     1 UNK         0.0000 
     24 C24       -18.6736   10.4858    1.5931 C.3       1 UNK         0.0000 
     25 C25       -18.2078   11.7116    0.7400 C.3       1 UNK         0.0000 
     26 C26       -19.1664   12.1216   -0.3871 C.2       1 UNK         0.0000 
     27 O27       -19.7719   13.1864   -0.3018 O.2       1 UNK         0.0000 
     28 N28       -19.3834   11.2233   -1.3622 N.am      1 UNK         0.0000 
     29 C29       -20.5577   11.1921   -2.2370 C.3       1 UNK         0.0000 
     30 C30       -20.7847   12.4175   -3.1498 C.3       1 UNK         0.0000 
     31 C31       -22.2783   12.7609   -3.3712 C.3       1 UNK         0.0000 
     32 C32       -22.9892   13.2408   -2.0820 C.3       1 UNK         0.0000 
     33 C33       -23.7641   12.1726   -1.2365 C.3       1 UNK         0.0000 
     34 N34       -23.5063   12.1660    0.2279 N.am      1 UNK         0.0000 
     35 O35       -23.2902   10.9385    0.7355 O.co2     1 UNK         0.0000 
     36 C36       -23.5095   13.2798    1.0110 C.2       1 UNK         0.0000 
     37 O37       -23.1083   13.1598    2.1763 O.co2     1 UNK         0.0000 
     38 C38       -24.0230   14.6558    0.5438 C.3       1 UNK         0.0000 
     39 C39       -25.5438   14.7341    0.2331 C.3       1 UNK         0.0000 
     40 C40       -26.3973   14.2942    1.4185 C.2       1 UNK         0.0000 
     41 O41       -26.8718   13.1677    1.4504 O.2       1 UNK         0.0000 
     42 N42       -26.4753   15.1742    2.4270 N.am      1 UNK         0.0000 
     43 C43       -26.7665   14.9487    3.8463 C.3       1 UNK         0.0000 
     44 C44       -27.7527   13.8306    4.2702 C.3       1 UNK         0.0000 
     45 C45       -27.0737   12.4840    4.6118 C.3       1 UNK         0.0000 
     46 C46       -26.1567   12.5055    5.8642 C.3       1 UNK         0.0000 
     47 C47       -25.1166   11.3672    5.9466 C.3       1 UNK         0.0000 
     48 N48       -24.0258   11.4563    4.9526 N.am      1 UNK         0.0000 
     49 O49       -24.3824   11.1069    3.7034 O.co2     1 UNK         0.0000 
     50 C50       -22.7719   11.8755    5.2711 C.2       1 UNK         0.0000 
     51 O51       -21.9430   11.9527    4.3596 O.co2     1 UNK         0.0000 
     52 C52       -22.3609   12.2838    6.6846 C.3       1 UNK         0.0000 
     53 H53       -14.5701    3.3785   13.3053 H         1 UNK         0.0000 
     54 H54       -14.5936    2.2712   15.4682 H         1 UNK         0.0000 
     55 H55       -16.3166    0.5847   15.9949 H         1 UNK         0.0000 
     56 H56       -18.0388   -0.0023   14.3218 H         1 UNK         0.0000 
     57 H57       -18.0469    1.0878   12.1217 H         1 UNK         0.0000 
     58 H58       -17.1965    2.5839   10.6934 H         1 UNK         0.0000 
     59 H59       -16.0356    5.3933    9.3345 H         1 UNK         0.0000 
     60 H60       -15.0638    4.0809    8.6111 H         1 UNK         0.0000 
     61 H61       -18.1081    4.0121    9.1282 H         1 UNK         0.0000 
     62 H62       -17.1370    2.6358    8.5043 H         1 UNK         0.0000 
     63 H63       -16.0605    5.6385    7.2266 H         1 UNK         0.0000 
     64 H64       -16.3892    4.9363    4.5696 H         1 UNK         0.0000 
     65 H65       -16.0636    6.5266    5.1562 H         1 UNK         0.0000 
     66 H66       -18.5149    6.9863    5.3875 H         1 UNK         0.0000 
     67 H67       -18.8755    5.3971    4.7434 H         1 UNK         0.0000 
     68 H68       -17.7212    5.9417    2.6044 H         1 UNK         0.0000 
     69 H69       -17.3027    7.5259    3.2139 H         1 UNK         0.0000 
     70 H70       -20.1665    6.5401    2.7396 H         1 UNK         0.0000 
     71 H71       -19.2676    7.5818    1.6871 H         1 UNK         0.0000 
     72 H72       -19.0041    9.0458    3.9948 H         1 UNK         0.0000 
     73 H73       -20.4179    8.1508    4.4344 H         1 UNK         0.0000 
     74 H74       -17.9952   10.3840    2.4409 H         1 UNK         0.0000 
     75 H75       -18.5276    9.5813    1.0019 H         1 UNK         0.0000 
     76 H76       -17.2189   11.5124    0.3208 H         1 UNK         0.0000 
     77 H77       -18.0343   12.5563    1.4125 H         1 UNK         0.0000 
     78 H78       -18.8199   10.3884   -1.3519 H         1 UNK         0.0000 
     79 H79       -21.4071   11.0353   -1.5747 H         1 UNK         0.0000 
     80 H80       -20.4945   10.2953   -2.8572 H         1 UNK         0.0000 
     81 H81       -20.2997   12.2279   -4.1101 H         1 UNK         0.0000 
     82 H82       -20.2833   13.3036   -2.7479 H         1 UNK         0.0000 
     83 H83       -22.8288   11.9431   -3.8480 H         1 UNK         0.0000 
     84 H84       -22.2981   13.5823   -4.1003 H         1 UNK         0.0000 
     85 H85       -23.7022   14.0178   -2.3661 H         1 UNK         0.0000 
     86 H86       -22.2282   13.7420   -1.4798 H         1 UNK         0.0000 
     87 H87       -23.5646   11.1762   -1.6452 H         1 UNK         0.0000 
     88 H88       -24.8388   12.2980   -1.3958 H         1 UNK         0.0000 
     89 H89       -23.7701   15.4081    1.2965 H         1 UNK         0.0000 
     90 H90       -23.4582   15.0071   -0.3122 H         1 UNK         0.0000 
     91 H91       -25.8063   14.2064   -0.6826 H         1 UNK         0.0000 
     92 H92       -25.7812   15.7719   -0.0080 H         1 UNK         0.0000 
     93 H93       -26.1741   16.1083    2.1938 H         1 UNK         0.0000 
     94 H94       -27.1377   15.9006    4.2323 H         1 UNK         0.0000 
     95 H95       -25.8037   14.8087    4.3401 H         1 UNK         0.0000 
     96 H96       -28.4991   13.6900    3.4805 H         1 UNK         0.0000 
     97 H97       -28.3068   14.1697    5.1487 H         1 UNK         0.0000 
     98 H98       -26.5323   12.1616    3.7285 H         1 UNK         0.0000 
     99 H99       -27.8487   11.7236    4.7681 H         1 UNK         0.0000 
    100 H100      -25.6177   13.4404    5.9825 H         1 UNK         0.0000 
    101 H101      -26.8068   12.4353    6.7361 H         1 UNK         0.0000 
    102 H102      -25.6055   10.3971    5.8163 H         1 UNK         0.0000 
    103 H103      -24.7254   11.3479    6.9656 H         1 UNK         0.0000 
    104 H104      -22.9885   13.1057    7.0292 H         1 UNK         0.0000 
    105 H105      -21.3252   12.6277    6.6935 H         1 UNK         0.0000 
    106 H106      -22.4394   11.4545    7.3911 H         1 UNK         0.0000 
    107 Fe107     -22.6552   11.2914    2.6432 Fe        1 UNK         0.0000 
@<TRIPOS>BOND
     1    1    2 ar   
     2    1    6 ar   
     3    1   53 1    
     4    2    3 ar   
     5    2   54 1    
     6    3    4 ar   
     7    3   55 1    
     8    4    5 ar   
     9    4   56 1    
    10    5    6 ar   
    11    5   57 1    
    12    6    7 1    
    13    7    8 am   BACKBONE|DICT|INTERRES
    14    7   58 1    
    15    8    9 2    
    16    8   10 1    
    17   10   11 1    
    18   10   59 1    
    19   10   60 1    
    20   11   12 1    
    21   11   61 1    
    22   11   62 1    
    23   12   13 2    
    24   12   14 am   BACKBONE|DICT|INTERRES
    25   14   15 1    
    26   14   63 1    
    27   15   16 1    
    28   15   64 1    
    29   15   65 1    
    30   16   17 1    
    31   16   66 1    
    32   16   67 1    
    33   17   18 1    
    34   17   68 1    
    35   17   69 1    
    36   18   19 1    
    37   18   70 1    
    38   18   71 1    
    39   19   20 1    
    40   19   72 1    
    41   19   73 1    
    42   20   21 1    
    43   20   22 am   BACKBONE|DICT|INTERRES
    44   21  107 nc   
    45   22   23 2    
    46   22   24 1    
    47   23  107 nc   
    48   24   25 1    
    49   24   74 1    
    50   24   75 1    
    51   25   26 1    
    52   25   76 1    
    53   25   77 1    
    54   26   27 2    
    55   26   28 am   BACKBONE|DICT|INTERRES
    56   28   29 1    
    57   28   78 1    
    58   29   30 1    
    59   29   79 1    
    60   29   80 1    
    61   30   31 1    
    62   30   81 1    
    63   30   82 1    
    64   31   32 1    
    65   31   83 1    
    66   31   84 1    
    67   32   33 1    
    68   32   85 1    
    69   32   86 1    
    70   33   34 1    
    71   33   87 1    
    72   33   88 1    
    73   34   35 1    
    74   34   36 am   BACKBONE|DICT|INTERRES
    75   35  107 nc   
    76   36   37 2    
    77   36   38 1    
    78   37  107 nc   
    79   38   39 1    
    80   38   89 1    
    81   38   90 1    
    82   39   40 1    
    83   39   91 1    
    84   39   92 1    
    85   40   41 2    
    86   40   42 am   BACKBONE|DICT|INTERRES
    87   42   43 1    
    88   42   93 1    
    89   43   44 1    
    90   43   94 1    
    91   43   95 1    
    92   44   45 1    
    93   44   96 1    
    94   44   97 1    
    95   45   46 1    
    96   45   98 1    
    97   45   99 1    
    98   46   47 1    
    99   46  100 1    
   100   46  101 1    
   101   47   48 1    
   102   47  102 1    
   103   47  103 1    
   104   48   49 1    
   105   48   50 am   BACKBONE|DICT|INTERRES
   106   49  107 nc   
   107   50   51 2    
   108   50   52 1    
   109   51  107 nc   
   110   52  104 1    
   111   52  105 1    
   112   52  106 1    
@<TRIPOS>SUBSTRUCTURE
     1 UNK         1 GROUP             0       ****    0 ROOT    
