@<TRIPOS>MOLECULE
221_c1
49   53    1
SMALL
USER_CHARGES


@<TRIPOS>ATOM
      1 Fe1        -1.1363   -2.4469    0.7435 Fe        1 UNK         0.0000 
      2 O2         -1.4382   -3.5130    2.3289 O.co2     1 UNK         0.0000 
      3 C3         -1.3391   -3.2658    3.5758 C.2       1 UNK         0.0000 
      4 O4         -1.5885   -4.0839    4.4913 O.co2     1 UNK         0.0000 
      5 C5         -0.8910   -1.8380    4.0447 C.3       1 UNK         0.0000 
      6 C6         -0.7789   -0.6538    2.9885 C.3       1 UNK         0.0000 
      7 O7          0.1343   -1.0879    1.9967 O.co2     1 UNK         0.0000 
      8 C8         -2.2187   -0.4308    2.3367 C.2       1 UNK         0.0000 
      9 O9         -2.5073   -1.2361    1.3913 O.co2     1 UNK         0.0000 
     10 O10        -2.9331    0.5351    2.7015 O.co2     1 UNK         0.0000 
     11 C11        -0.2590    0.6841    3.6511 C.3       1 UNK         0.0000 
     12 C12         0.1120    1.8928    2.7397 C.2       1 UNK         0.0000 
     13 O13         1.1500    2.5277    2.9454 O.2       1 UNK         0.0000 
     14 N14        -0.7749    2.2968    1.8109 N.am      1 UNK         0.0000 
     15 C15        -0.6627    3.4130    0.8696 C.3       1 UNK         0.0000 
     16 C16        -0.6203    2.9702   -0.6154 C.3       1 UNK         0.0000 
     17 C17         0.6926    2.2758   -1.0610 C.3       1 UNK         0.0000 
     18 C18         0.7168    1.9153   -2.5624 C.3       1 UNK         0.0000 
     19 N19        -0.1773    0.7914   -2.8235 N.am      1 UNK         0.0000 
     20 C20         0.1378   -0.3283   -3.4930 C.2       1 UNK         0.0000 
     21 O21         1.1480   -0.4212   -4.1983 O.2       1 UNK         0.0000 
     22 C22        -0.8785   -1.4886   -3.3552 C.3       1 UNK         0.0000 
     23 C23        -0.8488   -2.3417   -2.0283 C.3       1 UNK         0.0000 
     24 C24        -2.1677   -3.2273   -1.8789 C.2       1 UNK         0.0000 
     25 O25        -2.5730   -3.3785   -0.6768 O.co2     1 UNK         0.0000 
     26 O26        -2.7366   -3.6829   -2.9009 O.co2     1 UNK         0.0000 
     27 O27        -0.7691   -1.5182   -0.8830 O.co2     1 UNK         0.0000 
     28 C28         0.4134   -3.3039   -2.0595 C.3       1 UNK         0.0000 
     29 C29         0.8319   -4.1200   -0.8003 C.2       1 UNK         0.0000 
     30 O30         0.3097   -3.8478    0.3207 O.co2     1 UNK         0.0000 
     31 O31         1.7115   -4.9891   -0.9971 O.co2     1 UNK         0.0000 
     32 H32        -1.5471   -1.5520    4.8711 H         1 UNK         0.0000 
     33 H33         0.0968   -2.0038    4.4685 H         1 UNK         0.0000 
     34 H34        -0.9732    1.0367    4.3948 H         1 UNK         0.0000 
     35 H35         0.6473    0.4313    4.1965 H         1 UNK         0.0000 
     36 H36        -1.5996    1.6993    1.8005 H         1 UNK         0.0000 
     37 H37        -1.4776    4.1216    1.0379 H         1 UNK         0.0000 
     38 H38         0.2540    3.9726    1.0768 H         1 UNK         0.0000 
     39 H39        -1.4722    2.3179   -0.8361 H         1 UNK         0.0000 
     40 H40        -0.7577    3.8589   -1.2299 H         1 UNK         0.0000 
     41 H41         0.8463    1.3670   -0.4623 H         1 UNK         0.0000 
     42 H42         1.5463    2.9166   -0.8423 H         1 UNK         0.0000 
     43 H43         0.4068    2.7741   -3.1690 H         1 UNK         0.0000 
     44 H44         1.7504    1.7035   -2.8551 H         1 UNK         0.0000 
     45 H45        -0.9037    0.5875   -2.1487 H         1 UNK         0.0000 
     46 H46        -1.8640   -1.0419   -3.4708 H         1 UNK         0.0000 
     47 H47        -0.7495   -2.1515   -4.2125 H         1 UNK         0.0000 
     48 H48         1.2926   -2.6916   -2.2614 H         1 UNK         0.0000 
     49 H49         0.3441   -4.0134   -2.8895 H         1 UNK         0.0000 
@<TRIPOS>BOND
     1    1    2 nc   
     2    1    7 nc   
     3    1    9 nc   
     4    1   25 nc   
     5    1   27 nc   
     6    1   30 nc   
     7    2    3 1    
     8    3    5 1    
     9    3    4 2    
    10    5   33 1    
    11    5   32 1    
    12    5    6 1    
    13    6    7 1    
    14    6   11 1    
    15    6    8 1    
    16    8   10 2    
    17    8    9 1    
    18   11   35 1    
    19   11   34 1    
    20   11   12 1    
    21   12   13 2    
    22   12   14 am   BACKBONE|DICT|INTERRES
    23   14   15 1    
    24   14   36 1    
    25   15   37 1    
    26   15   38 1    
    27   15   16 1    
    28   16   17 1    
    29   16   39 1    
    30   16   40 1    
    31   17   42 1    
    32   17   41 1    
    33   17   18 1    
    34   18   19 1    
    35   18   43 1    
    36   18   44 1    
    37   19   45 1    
    38   19   20 am   BACKBONE|DICT|INTERRES
    39   20   21 2    
    40   20   22 1    
    41   22   46 1    
    42   22   23 1    
    43   22   47 1    
    44   23   28 1    
    45   23   24 1    
    46   23   27 1    
    47   24   25 1    
    48   24   26 2    
    49   28   29 1    
    50   28   48 1    
    51   28   49 1    
    52   29   31 2    
    53   29   30 1    
@<TRIPOS>SUBSTRUCTURE
     1 UNK         1 GROUP             0       ****    0 ROOT    
