@<TRIPOS>MOLECULE
218_c1
49   54    1
SMALL
USER_CHARGES


@<TRIPOS>ATOM
      1 Fe1        -0.1609   -0.0072    0.0094 Fe        1 UNK         0.0000 
      2 S2         -0.2022    2.4471   -0.1014 S.3       1 UNK         0.0000 
      3 C3          0.9122    3.9032   -0.0086 C.2       1 UNK         0.0000 
      4 O4          0.5730    5.0674    0.0300 O.2       1 UNK         0.0000 
      5 C5          2.4007    3.5652    0.0476 C.ar      1 UNK         0.0000 
      6 N6          2.6565    2.2641    0.0986 N.ar      1 UNK         0.0000 
      7 C7          3.8082    1.6654    0.0945 C.ar      1 UNK         0.0000 
      8 C8          3.4662    0.1883    0.0953 C.2       1 UNK         0.0000 
      9 S9          4.9237   -0.8843    0.0209 S.3       1 UNK         0.0000 
     10 O10         2.2398   -0.1651    0.1107 O.2       1 UNK         0.0000 
     11 C11         4.9828    2.4258    0.0802 C.ar      1 UNK         0.0000 
     12 C12         4.8150    3.8385    0.0794 C.ar      1 UNK         0.0000 
     13 C13         3.5162    4.4204    0.0603 C.ar      1 UNK         0.0000 
     14 H14         5.9602    1.9667    0.0776 H         1 UNK         0.0000 
     15 H15         5.6841    4.4783    0.0918 H         1 UNK         0.0000 
     16 H16         3.3790    5.4919    0.0590 H         1 UNK         0.0000 
     17 S17         0.1283   -2.4400   -0.2485 S.3       1 UNK         0.0000 
     18 C18         0.1251   -3.8789    0.8786 C.2       1 UNK         0.0000 
     19 O19         0.1928   -5.0465    0.5558 O.2       1 UNK         0.0000 
     20 C20         0.0722   -3.5177    2.3634 C.ar      1 UNK         0.0000 
     21 N21         0.0254   -2.2088    2.6356 N.ar      1 UNK         0.0000 
     22 C22         0.0267   -1.6505    3.8252 C.ar      1 UNK         0.0000 
     23 C23         0.0111   -0.1536    3.5871 C.2       1 UNK         0.0000 
     24 S24         0.0552    0.8601    5.0892 S.3       1 UNK         0.0000 
     25 O25        -0.0168    0.2480    2.3839 O.2       1 UNK         0.0000 
     26 C26         0.0608   -2.4468    4.9732 C.ar      1 UNK         0.0000 
     27 C27         0.0782   -3.8495    4.7690 C.ar      1 UNK         0.0000 
     28 C28         0.0913   -4.3937    3.4599 C.ar      1 UNK         0.0000 
     29 H29         0.0695   -2.0203    5.9663 H         1 UNK         0.0000 
     30 H30         0.0871   -4.5183    5.6196 H         1 UNK         0.0000 
     31 H31         0.1132   -5.4619    3.2894 H         1 UNK         0.0000 
     32 S32        -2.6327   -0.1744    0.2563 S.3       1 UNK         0.0000 
     33 C33        -4.0300   -0.0595   -0.9135 C.2       1 UNK         0.0000 
     34 O34        -5.2082   -0.0443   -0.6343 O.2       1 UNK         0.0000 
     35 C35        -3.6035    0.0369   -2.3810 C.ar      1 UNK         0.0000 
     36 N36        -2.2822    0.1086   -2.6132 N.ar      1 UNK         0.0000 
     37 C37        -1.7018    0.1029   -3.7990 C.ar      1 UNK         0.0000 
     38 C38        -0.2098    0.0821   -3.5594 C.2       1 UNK         0.0000 
     39 S39         0.8083    0.0468   -5.0621 S.3       1 UNK         0.0000 
     40 O40         0.1815    0.0642   -2.3569 O.2       1 UNK         0.0000 
     41 C41        -2.4703    0.0894   -4.9636 C.ar      1 UNK         0.0000 
     42 C42        -3.8751    0.0833   -4.7966 C.ar      1 UNK         0.0000 
     43 C43        -4.4498    0.0490   -3.5016 C.ar      1 UNK         0.0000 
     44 H44        -2.0136    0.0875   -5.9419 H         1 UNK         0.0000 
     45 H45        -4.5215    0.0926   -5.6643 H         1 UNK         0.0000 
     46 H46        -5.5225    0.0267   -3.3623 H         1 UNK         0.0000 
     47 H47         4.2394   -2.0284    0.0041 H         1 UNK         0.0000 
     48 H48        -0.0142    2.0282    4.4506 H         1 UNK         0.0000 
     49 H49         1.9827    0.0010   -4.4363 H         1 UNK         0.0000 
@<TRIPOS>BOND
     1    1    2 nc   
     2    1   10 nc   
     3    1   17 nc   
     4    1   25 nc   
     5    1   32 nc   
     6    1   40 nc   
     7    2    3 1    
     8    3    4 2    
     9    3    5 1    
    10    5   13 ar   
    11    5    6 ar   
    12    6    7 ar   
    13    7   11 ar   
    14    7    8 1    
    15    8    9 1    
    16    8   10 2    
    17    9   47 1    
    18   11   14 1    
    19   11   12 ar   
    20   12   15 1    
    21   12   13 ar   
    22   13   16 1    
    23   17   18 1    
    24   18   20 1    
    25   18   19 2    
    26   20   21 ar   
    27   20   28 ar   
    28   21   22 ar   
    29   22   26 ar   
    30   22   23 1    
    31   23   24 1    
    32   23   25 2    
    33   24   48 1    
    34   26   29 1    
    35   26   27 ar   
    36   27   30 1    
    37   27   28 ar   
    38   28   31 1    
    39   32   33 1    
    40   33   34 2    
    41   33   35 1    
    42   35   36 ar   
    43   35   43 ar   
    44   36   37 ar   
    45   37   38 1    
    46   37   41 ar   
    47   38   39 1    
    48   38   40 2    
    49   39   49 1    
    50   41   42 ar   
    51   41   44 1    
    52   42   43 ar   
    53   42   45 1    
    54   43   46 1    
@<TRIPOS>SUBSTRUCTURE
     1 UNK         1 GROUP             0       ****    0 ROOT    
