@<TRIPOS>MOLECULE
278_c1
165   178    1
SMALL
USER_CHARGES


@<TRIPOS>ATOM
      1 Fe1         0.0000    0.0000    0.0000 Fe        1 UNK         0.0000 
      2 C2          1.8571   -1.6227    3.7524 C.ar      1 UNK         0.0000 
      3 C3          1.4527   -2.3497    2.6132 C.ar      1 UNK         0.0000 
      4 C4          1.4717   -1.7290    1.3608 C.ar      1 UNK         0.0000 
      5 O5          0.7015   -2.1326    0.2549 O.co2     1 UNK         0.0000 
      6 C6          2.1366   -0.5163    1.2499 C.ar      1 UNK         0.0000 
      7 O7          2.0800    0.0000    0.0000 O.co2     1 UNK         0.0000 
      8 C8          2.6168    0.2071    2.3637 C.ar      1 UNK         0.0000 
      9 Cl9         3.4293    1.7258    2.0448 Cl        1 UNK         0.0000 
     10 C10         2.3653   -0.2926    3.6708 C.ar      1 UNK         0.0000 
     11 C11         2.5298    0.4435    5.0018 C.2       1 UNK         0.0000 
     12 O12         2.7653   -0.2721    5.9663 O.2       1 UNK         0.0000 
     13 N13         2.3029    1.7825    5.2943 N.am      1 UNK         0.0000 
     14 C14         1.8743    2.9211    4.4778 C.3       1 UNK         0.0000 
     15 C15         0.5362    2.6719    3.7266 C.3       1 UNK         0.0000 
     16 N16        -0.0605    3.8135    2.9336 N.4       1 UNK         0.0000 
     17 C17         0.8718    4.3689    1.9043 C.3       1 UNK         0.0000 
     18 C18         0.7834    5.8832    2.0182 C.3       1 UNK         0.0000 
     19 C19         0.7032    6.0327    3.5167 C.3       1 UNK         0.0000 
     20 C20        -0.3470    4.9748    3.8318 C.3       1 UNK         0.0000 
     21 C21        -1.3023    3.2497    2.2833 C.3       1 UNK         0.0000 
     22 C22        -2.0595    4.0979    1.2430 C.2       1 UNK         0.0000 
     23 C23        -2.0098    3.8871   -0.1264 C.2       1 UNK         0.0000 
     24 C24        -1.1106    2.9056   -0.8505 C.2       1 UNK         0.0000 
     25 O25        -0.1693    2.1326   -0.2549 O.co2     1 UNK         0.0000 
     26 O26        -1.1877    2.8412   -2.0623 O.co2     1 UNK         0.0000 
     27 C27        -3.0651    5.1169    1.8018 C.3       1 UNK         0.0000 
     28 S28        -4.7047    5.1118    0.9807 S.3       1 UNK         0.0000 
     29 C29        -3.9055    5.6500   -0.5542 C.3       1 UNK         0.0000 
     30 H30        -3.4119    6.6465   -0.5059 H         1 UNK         0.0000 
     31 N31        -2.9820    4.6025   -0.9089 N.am      1 UNK         0.0000 
     32 C32        -4.7166    5.3747   -1.8773 C.3       1 UNK         0.0000 
     33 H33        -5.7051    4.8835   -1.7457 H         1 UNK         0.0000 
     34 C34        -3.6333    4.3891   -2.0575 C.2       1 UNK         0.0000 
     35 O35        -3.4858    3.4979   -2.8711 O.2       1 UNK         0.0000 
     36 N36        -4.7048    6.4329   -2.8715 N.am      1 UNK         0.0000 
     37 C37        -5.4800    7.5467   -2.7245 C.2       1 UNK         0.0000 
     38 O38        -6.1255    7.6879   -1.6977 O.2       1 UNK         0.0000 
     39 C39        -5.5924    8.5573   -3.8277 C.2       1 UNK         0.0000 
     40 N40        -5.0342    8.2479   -4.9538 N.2       1 UNK         0.0000 
     41 O41        -5.0895    9.0152   -6.0271 O.3       1 UNK         0.0000 
     42 C42        -4.6704    8.5762   -7.2686 C.3       1 UNK         0.0000 
     43 C43        -4.9063    9.7070   -8.2806 C.3       1 UNK         0.0000 
     44 C44        -3.1633    8.2465   -7.2247 C.3       1 UNK         0.0000 
     45 C45        -5.4993    7.3697   -7.6784 C.2       1 UNK         0.0000 
     46 O46        -6.8404    7.4780   -7.7563 O.3       1 UNK         0.0000 
     47 O47        -4.9748    6.2946   -7.9272 O.2       1 UNK         0.0000 
     48 C48        -6.3860    9.8324   -3.6834 C.2       1 UNK         0.0000 
     49 N49        -6.6268   10.6417   -4.7547 N.2       1 UNK         0.0000 
     50 C50        -7.3606   11.7233   -4.4287 C.2       1 UNK         0.0000 
     51 N51        -7.7504   12.7011   -5.3708 N.pl3     1 UNK         0.0000 
     52 S52        -7.7534   11.7575   -2.8045 S.3       1 UNK         0.0000 
     53 C53        -6.9493   10.3110   -2.4904 C.2       1 UNK         0.0000 
     54 H54         1.6683   -2.0783    4.7180 H         1 UNK         0.0000 
     55 H55         0.9937   -3.3171    2.7450 H         1 UNK         0.0000 
     56 H56         2.4009    2.0325    6.2934 H         1 UNK         0.0000 
     57 H57         1.7252    3.7838    5.1638 H         1 UNK         0.0000 
     58 H58         2.7050    3.2406    3.8471 H         1 UNK         0.0000 
     59 H59        -0.2041    2.3450    4.4951 H         1 UNK         0.0000 
     60 H60         0.7040    1.8186    3.0537 H         1 UNK         0.0000 
     61 H61         1.9205    4.1176    2.1263 H         1 UNK         0.0000 
     62 H62         0.7047    4.0258    0.8715 H         1 UNK         0.0000 
     63 H63        -0.1686    6.2376    1.5642 H         1 UNK         0.0000 
     64 H64         1.6288    6.4234    1.5410 H         1 UNK         0.0000 
     65 H65         0.4404    7.0538    3.8678 H         1 UNK         0.0000 
     66 H66         1.6822    5.7472    3.9582 H         1 UNK         0.0000 
     67 H67        -0.4249    4.7285    4.9134 H         1 UNK         0.0000 
     68 H68        -1.3013    5.4539    3.5755 H         1 UNK         0.0000 
     69 H69        -1.0761    2.2811    1.8154 H         1 UNK         0.0000 
     70 H70        -2.0354    2.9411    3.0630 H         1 UNK         0.0000 
     71 H71        -2.6457    6.1415    1.7111 H         1 UNK         0.0000 
     72 H72        -3.2574    4.9517    2.8807 H         1 UNK         0.0000 
     73 H73        -4.1500    6.2961   -3.7305 H         1 UNK         0.0000 
     74 H74        -4.5951    9.3942   -9.3012 H         1 UNK         0.0000 
     75 H75        -4.3275   10.6116   -7.9949 H         1 UNK         0.0000 
     76 H76        -5.9822    9.9862   -8.3106 H         1 UNK         0.0000 
     77 H77        -2.8042    7.9172   -8.2242 H         1 UNK         0.0000 
     78 H78        -2.5811    9.1423   -6.9193 H         1 UNK         0.0000 
     79 H79        -2.9602    7.4350   -6.4937 H         1 UNK         0.0000 
     80 H80        -7.4783   12.6094   -6.3595 H         1 UNK         0.0000 
     81 H81        -8.3191   13.5078   -5.0747 H         1 UNK         0.0000 
     82 H82        -6.8978    9.8717   -1.5077 H         1 UNK         0.0000 
     83 C83        -1.8593   -3.7523    1.6239 C.ar      1 UNK         0.0000 
     84 C84        -1.4534   -2.6130    2.3500 C.ar      1 UNK         0.0000 
     85 C85        -1.4719   -1.3608    1.7289 C.ar      1 UNK         0.0000 
     86 O86        -0.7015   -0.2549    2.1326 O.co2     1 UNK         0.0000 
     87 C87        -2.1367   -1.2500    0.5162 C.ar      1 UNK         0.0000 
     88 O88        -2.0800    0.0000    0.0000 O.co2     1 UNK         0.0000 
     89 C89        -2.6175   -2.3641   -0.2069 C.ar      1 UNK         0.0000 
     90 Cl90       -3.4289   -2.0461   -1.7264 Cl        1 UNK         0.0000 
     91 C91        -2.3681   -3.6712    0.2941 C.ar      1 UNK         0.0000 
     92 C92        -2.5360   -5.0029   -0.4399 C.2       1 UNK         0.0000 
     93 O93        -2.7764   -5.9650    0.2774 O.2       1 UNK         0.0000 
     94 N94        -2.3089   -5.2986   -1.7777 N.am      1 UNK         0.0000 
     95 C95        -1.8773   -4.4855   -2.9178 C.3       1 UNK         0.0000 
     96 C96        -0.5384   -3.7351   -2.6687 C.3       1 UNK         0.0000 
     97 N97         0.0587   -2.9423   -3.8106 N.4       1 UNK         0.0000 
     98 C98        -0.8742   -1.9146   -4.3676 C.3       1 UNK         0.0000 
     99 C99        -0.7884   -2.0332   -5.8817 C.3       1 UNK         0.0000 
    100 C100       -0.7065   -3.5320   -6.0271 C.3       1 UNK         0.0000 
    101 C101        0.3461   -3.8424   -4.9704 C.3       1 UNK         0.0000 
    102 C102        1.2994   -2.2886   -3.2474 C.3       1 UNK         0.0000 
    103 C103        2.0574   -1.2466   -4.0972 C.2       1 UNK         0.0000 
    104 C104        2.0062    0.1252   -3.8848 C.2       1 UNK         0.0000 
    105 C105        1.1117    0.8493   -2.9043 C.2       1 UNK         0.0000 
    106 O106        0.1693    0.2549   -2.1326 O.co2     1 UNK         0.0000 
    107 O107        1.1898    2.0603   -2.8392 O.co2     1 UNK         0.0000 
    108 C108        3.0593   -1.8060   -5.1177 C.3       1 UNK         0.0000 
    109 S109        4.6985   -0.9847   -5.1175 S.3       1 UNK         0.0000 
    110 C110        3.8990    0.5519   -5.6494 C.3       1 UNK         0.0000 
    111 H111        3.4015    0.5038   -6.6456 H         1 UNK         0.0000 
    112 N112        2.9795    0.9067   -4.5985 N.am      1 UNK         0.0000 
    113 C113        4.7118    1.8735   -5.3746 C.3       1 UNK         0.0000 
    114 H114        5.7009    1.7396   -4.8875 H         1 UNK         0.0000 
    115 C115        3.6334    2.0484   -4.3846 C.2       1 UNK         0.0000 
    116 O116        3.4885    2.8689   -3.4927 O.2       1 UNK         0.0000 
    117 N117        4.6961    2.8687   -6.4314 N.am      1 UNK         0.0000 
    118 C118        5.4691    2.7221   -7.5472 C.2       1 UNK         0.0000 
    119 O119        6.1117    1.6941   -7.6921 O.2       1 UNK         0.0000 
    120 C120        5.5836    3.8278   -8.5560 C.2       1 UNK         0.0000 
    121 N121        5.0252    4.9541   -8.2475 N.2       1 UNK         0.0000 
    122 O122        5.0821    6.0269   -9.0146 O.3       1 UNK         0.0000 
    123 C123        4.6649    7.2701   -8.5773 C.3       1 UNK         0.0000 
    124 C124        4.8985    8.2797   -9.7101 C.3       1 UNK         0.0000 
    125 C125        3.1591    7.2259   -8.2451 C.3       1 UNK         0.0000 
    126 C126        5.4959    7.6799   -7.3723 C.2       1 UNK         0.0000 
    127 O127        6.8367    7.7576   -7.4828 O.2       1 UNK         0.0000 
    128 O128        4.9725    7.9292   -6.2969 O.3       1 UNK         0.0000 
    129 C129        6.3800    3.6832   -9.8314 C.2       1 UNK         0.0000 
    130 N130        6.6220    4.7538  -10.6409 N.2       1 UNK         0.0000 
    131 C131        7.3569    4.4316  -11.7229 C.2       1 UNK         0.0000 
    132 N132        7.7507    5.3714  -12.6992 N.pl3     1 UNK         0.0000 
    133 S133        7.7483    2.8042  -11.7572 S.3       1 UNK         0.0000 
    134 C134        6.9433    2.4900  -10.3112 C.2       1 UNK         0.0000 
    135 H135       -1.6717   -4.7179    2.0800 H         1 UNK         0.0000 
    136 H136       -0.9943   -2.7449    3.3173 H         1 UNK         0.0000 
    137 H137       -2.4111   -6.2978   -2.0264 H         1 UNK         0.0000 
    138 H138       -1.7288   -5.1736   -3.7786 H         1 UNK         0.0000 
    139 H139       -2.7074   -3.8542   -3.2385 H         1 UNK         0.0000 
    140 H140        0.2014   -4.5039   -2.3412 H         1 UNK         0.0000 
    141 H141       -0.7061   -3.0621   -1.8156 H         1 UNK         0.0000 
    142 H142       -1.9225   -2.1353   -4.1141 H         1 UNK         0.0000 
    143 H143       -0.7063   -0.8809   -4.0268 H         1 UNK         0.0000 
    144 H144        0.1627   -1.5794   -6.2388 H         1 UNK         0.0000 
    145 H145       -1.6351   -1.5584   -6.4218 H         1 UNK         0.0000 
    146 H146       -0.4449   -3.8858   -7.0476 H         1 UNK         0.0000 
    147 H147       -1.6845   -3.9740   -5.7390 H         1 UNK         0.0000 
    148 H148        0.4269   -4.9233   -4.7218 H         1 UNK         0.0000 
    149 H149        1.2991   -3.5845   -5.4511 H         1 UNK         0.0000 
    150 H150        1.0697   -1.8192   -2.2803 H         1 UNK         0.0000 
    151 H151        2.0331   -3.0666   -2.9367 H         1 UNK         0.0000 
    152 H152        2.6374   -1.7161   -6.1415 H         1 UNK         0.0000 
    153 H153        3.2527   -2.8846   -4.9512 H         1 UNK         0.0000 
    154 H154        4.1424    3.7284   -6.2931 H         1 UNK         0.0000 
    155 H155        4.5877    9.3009   -9.3984 H         1 UNK         0.0000 
    156 H156        4.3166    7.9921  -10.6127 H         1 UNK         0.0000 
    157 H157        5.9732    8.3087   -9.9925 H         1 UNK         0.0000 
    158 H158        2.7996    8.2252   -7.9157 H         1 UNK         0.0000 
    159 H159        2.5745    6.9192   -9.1393 H         1 UNK         0.0000 
    160 H160        2.9571    6.4952   -7.4328 H         1 UNK         0.0000 
    161 H161        7.4816    6.3614  -12.6055 H         1 UNK         0.0000 
    162 H162        8.3199    5.0760  -13.5051 H         1 UNK         0.0000 
    163 H163        6.8932    1.5067   -9.8739 H         1 UNK         0.0000 
    164 H164       -7.2148    6.6361   -8.0257 H         1 UNK         0.0000 
    165 H165        5.6490    8.1679   -5.6589 H         1 UNK         0.0000 
@<TRIPOS>BOND
     1    1    5 nc   
     2    1    7 nc   
     3    1   25 nc   
     4    1   86 nc   
     5    1   88 nc   
     6    1  106 nc   
     7    2   54 1    
     8    2    3 ar   
     9    2   10 ar   
    10    3   55 1    
    11    3    4 ar   
    12    4    5 1    
    13    4    6 ar   
    14    6    8 ar   
    15    6    7 1    
    16    8   10 ar   
    17    8    9 1    
    18   10   11 1    
    19   11   13 am   BACKBONE|DICT|INTERRES
    20   11   12 2    
    21   13   56 1    
    22   13   14 1    
    23   14   57 1    
    24   14   15 1    
    25   14   58 1    
    26   15   59 1    
    27   15   16 1    
    28   15   60 1    
    29   16   20 1    
    30   16   17 1    
    31   16   21 1    
    32   17   18 1    
    33   17   61 1    
    34   17   62 1    
    35   18   19 1    
    36   18   63 1    
    37   18   64 1    
    38   19   20 1    
    39   19   65 1    
    40   19   66 1    
    41   20   67 1    
    42   20   68 1    
    43   21   70 1    
    44   21   22 1    
    45   21   69 1    
    46   22   27 1    
    47   22   23 2    
    48   23   24 1    
    49   23   31 1    
    50   24   25 1    
    51   24   26 2    
    52   27   72 1    
    53   27   28 1    
    54   27   71 1    
    55   28   29 1    
    56   29   30 1    
    57   29   31 1    
    58   29   32 1    
    59   31   34 am   BACKBONE|DICT|INTERRES
    60   32   33 1    
    61   32   34 1    
    62   32   36 1    
    63   34   35 2    
    64   36   37 am   BACKBONE|DICT|INTERRES
    65   36   73 1    
    66   37   38 2    
    67   37   39 1    
    68   39   48 1    
    69   39   40 2    
    70   40   41 1    
    71   41   42 1    
    72   42   44 1    
    73   42   43 1    
    74   42   45 1    
    75   43   75 1    
    76   43   74 1    
    77   43   76 1    
    78   44   78 1    
    79   44   79 1    
    80   44   77 1    
    81   45   46 1    
    82   45   47 2    
    83   46  164 1    
    84   48   53 2    
    85   48   49 1    
    86   49   50 2    
    87   50   52 1    
    88   50   51 1    
    89   51   81 1    
    90   51   80 1    
    91   52   53 1    
    92   53   82 1    
    93   83  135 1    
    94   83   84 ar   
    95   83   91 ar   
    96   84  136 1    
    97   84   85 ar   
    98   85   86 1    
    99   85   87 ar   
   100   87   88 1    
   101   87   89 ar   
   102   89   91 ar   
   103   89   90 1    
   104   91   92 1    
   105   92   93 2    
   106   92   94 am   BACKBONE|DICT|INTERRES
   107   94   95 1    
   108   94  137 1    
   109   95   96 1    
   110   95  138 1    
   111   95  139 1    
   112   96  140 1    
   113   96  141 1    
   114   96   97 1    
   115   97  102 1    
   116   97   98 1    
   117   97  101 1    
   118   98  142 1    
   119   98  143 1    
   120   98   99 1    
   121   99  100 1    
   122   99  144 1    
   123   99  145 1    
   124  100  147 1    
   125  100  101 1    
   126  100  146 1    
   127  101  148 1    
   128  101  149 1    
   129  102  151 1    
   130  102  150 1    
   131  102  103 1    
   132  103  104 2    
   133  103  108 1    
   134  104  105 1    
   135  104  112 1    
   136  105  107 2    
   137  105  106 1    
   138  108  109 1    
   139  108  153 1    
   140  108  152 1    
   141  109  110 1    
   142  110  111 1    
   143  110  113 1    
   144  110  112 1    
   145  112  115 am   BACKBONE|DICT|INTERRES
   146  113  114 1    
   147  113  115 1    
   148  113  117 1    
   149  115  116 2    
   150  117  154 1    
   151  117  118 am   BACKBONE|DICT|INTERRES
   152  118  119 2    
   153  118  120 1    
   154  120  121 2    
   155  120  129 1    
   156  121  122 1    
   157  122  123 1    
   158  123  125 1    
   159  123  126 1    
   160  123  124 1    
   161  124  155 1    
   162  124  156 1    
   163  124  157 1    
   164  125  158 1    
   165  125  160 1    
   166  125  159 1    
   167  126  128 1    
   168  126  127 2    
   169  128  165 1    
   170  129  130 1    
   171  129  134 2    
   172  130  131 2    
   173  131  132 1    
   174  131  133 1    
   175  132  161 1    
   176  132  162 1    
   177  133  134 1    
   178  134  163 1    
@<TRIPOS>SUBSTRUCTURE
     1 UNK         1 GROUP             0       ****    0 ROOT    
