@<TRIPOS>MOLECULE
012_r4_c1
87   91    1
SMALL
USER_CHARGES


@<TRIPOS>ATOM
      1 Fe1        -0.1880    0.9394    0.9388 Fe        1 UNK         0.0000 
      2 C2          1.0068   -8.3150   -4.4962 C.3       1 UNK         0.0000 
      3 C3          0.7000   -7.0774   -3.6584 C.3       1 UNK         0.0000 
      4 C4          1.9922   -6.3900   -3.1813 C.3       1 UNK         0.0000 
      5 C5          1.7337   -5.1685   -2.2795 C.3       1 UNK         0.0000 
      6 C6          1.0055   -4.0340   -3.0161 C.3       1 UNK         0.0000 
      7 C7          0.7493   -2.8295   -2.1501 C.2       1 UNK         0.0000 
      8 C8         -0.0140   -2.9071   -1.0500 C.2       1 UNK         0.0000 
      9 C9         -0.3905   -1.7083   -0.2731 C.2       1 UNK         0.0000 
     10 O10        -0.0687   -0.5607   -0.5402 O.co2     1 UNK         0.0000 
     11 N11        -1.1683   -1.6959    0.7657 N.am      1 UNK         0.0000 
     12 O12        -1.4341   -0.4204    0.9849 O.co2     1 UNK         0.0000 
     13 C13        -1.7190   -2.7581    1.5788 C.3       1 UNK         0.0000 
     14 C14        -0.6493   -3.6171    2.2814 C.3       1 UNK         0.0000 
     15 C15         0.6348   -2.9233    2.7972 C.3       1 UNK         0.0000 
     16 N16         0.4518   -1.6982    3.5649 N.am      1 UNK         0.0000 
     17 C17         1.5343   -1.0818    4.1357 C.2       1 UNK         0.0000 
     18 O18         2.6271   -1.6333    4.1162 O.2       1 UNK         0.0000 
     19 C19         1.4539    0.3016    4.7700 C.3       1 UNK         0.0000 
     20 C20         1.3111    1.4207    3.6934 C.3       1 UNK         0.0000 
     21 O21         0.1677    1.2400    2.9384 O.co2     1 UNK         0.0000 
     22 C22         2.3030    1.2706    2.6252 C.2       1 UNK         0.0000 
     23 O23         1.7296    1.0888    1.4200 O.3       1 UNK         0.0000 
     24 O24         3.5123    1.3462    2.7780 O.2       1 UNK         0.0000 
     25 C25         1.3508    2.8800    4.2366 C.3       1 UNK         0.0000 
     26 C26        -0.0409    3.4624    4.3773 C.2       1 UNK         0.0000 
     27 O27        -0.8167    2.9846    5.1935 O.2       1 UNK         0.0000 
     28 N28        -0.4270    4.4843    3.5551 N.am      1 UNK         0.0000 
     29 C29        -1.7521    5.0689    3.5614 C.3       1 UNK         0.0000 
     30 C30        -2.3225    5.2803    2.1405 C.3       1 UNK         0.0000 
     31 C31        -2.7281    4.0377    1.3084 C.3       1 UNK         0.0000 
     32 N32        -1.6269    3.2784    0.7425 N.am      1 UNK         0.0000 
     33 O33        -1.3060    1.9905    0.9040 O.co2     1 UNK         0.0000 
     34 C34        -0.7170    3.4172   -0.1047 C.2       1 UNK         0.0000 
     35 O35        -0.2162    2.2984   -0.0745 O.co2     1 UNK         0.0000 
     36 C36        -0.3151    4.5286   -0.9961 C.2       1 UNK         0.0000 
     37 C37        -0.9957    5.6721   -1.1467 C.2       1 UNK         0.0000 
     38 C38        -0.5042    6.7233   -2.1040 C.3       1 UNK         0.0000 
     39 C39        -1.4479    7.9338   -2.1307 C.3       1 UNK         0.0000 
     40 C40        -1.0456    8.9924   -3.1702 C.3       1 UNK         0.0000 
     41 C41         0.3155    9.6439   -2.8842 C.3       1 UNK         0.0000 
     42 C42         0.6309   10.7223   -3.9170 C.3       1 UNK         0.0000 
     43 H43         1.5907   -8.0343   -5.3986 H         1 UNK         0.0000 
     44 H44         1.5840   -9.0531   -3.9003 H         1 UNK         0.0000 
     45 H45         0.0558   -8.7875   -4.8224 H         1 UNK         0.0000 
     46 H46         0.0982   -6.3890   -4.2862 H         1 UNK         0.0000 
     47 H47         0.0939   -7.3827   -2.7778 H         1 UNK         0.0000 
     48 H48         2.5822   -7.1254   -2.5918 H         1 UNK         0.0000 
     49 H49         2.6008   -6.0806   -4.0592 H         1 UNK         0.0000 
     50 H50         1.1480   -5.4967   -1.3940 H         1 UNK         0.0000 
     51 H51         2.7137   -4.7828   -1.9235 H         1 UNK         0.0000 
     52 H52         0.0179   -4.3827   -3.3803 H         1 UNK         0.0000 
     53 H53         1.6124   -3.7200   -3.8926 H         1 UNK         0.0000 
     54 H54        -2.3255   -2.2726    2.3747 H         1 UNK         0.0000 
     55 H55        -2.4037   -3.4058    0.9907 H         1 UNK         0.0000 
     56 H56        -0.2969   -4.3986    1.5746 H         1 UNK         0.0000 
     57 H57        -1.1576   -4.1475    3.1160 H         1 UNK         0.0000 
     58 H58         1.2709   -2.6693    1.9209 H         1 UNK         0.0000 
     59 H59         1.1820   -3.6772    3.4054 H         1 UNK         0.0000 
     60 H60        -0.4819   -1.2710    3.6375 H         1 UNK         0.0000 
     61 H61         2.4122    0.4956    5.3019 H         1 UNK         0.0000 
     62 H62         0.6414    0.3372    5.5266 H         1 UNK         0.0000 
     63 H63         1.9574    2.9606    5.1636 H         1 UNK         0.0000 
     64 H64         1.8659    3.5219    3.4873 H         1 UNK         0.0000 
     65 H65         0.2622    4.9015    2.9110 H         1 UNK         0.0000 
     66 H66        -1.6575    6.0838    4.0059 H         1 UNK         0.0000 
     67 H67        -2.4636    4.4942    4.1928 H         1 UNK         0.0000 
     68 H68        -1.6364    5.9364    1.5702 H         1 UNK         0.0000 
     69 H69        -3.2640    5.8513    2.2966 H         1 UNK         0.0000 
     70 H70        -3.3525    3.3755    1.9452 H         1 UNK         0.0000 
     71 H71        -3.3634    4.3740    0.4618 H         1 UNK         0.0000 
     72 H72        -0.4497    6.2791   -3.1220 H         1 UNK         0.0000 
     73 H73         0.5126    7.0371   -1.7882 H         1 UNK         0.0000 
     74 H74        -2.4677    7.5776   -2.3968 H         1 UNK         0.0000 
     75 H75        -1.4944    8.3984   -1.1210 H         1 UNK         0.0000 
     76 H76        -1.0358    8.5289   -4.1813 H         1 UNK         0.0000 
     77 H77        -1.8249    9.7858   -3.1607 H         1 UNK         0.0000 
     78 H78         1.1246    8.8854   -2.9222 H         1 UNK         0.0000 
     79 H79         0.3020   10.1068   -1.8736 H         1 UNK         0.0000 
     80 H80         1.6168   11.1796   -3.6895 H         1 UNK         0.0000 
     81 H81        -0.1440   11.5180   -3.8943 H         1 UNK         0.0000 
     82 H82         0.6704   10.2806   -4.9357 H         1 UNK         0.0000 
     83 H83         2.4120    0.9953    0.7513 H         1 UNK         0.0000 
     84 H84        -1.8995    5.8412   -0.5802 H         1 UNK         0.0000 
     85 H85         0.5990    4.3676   -1.5482 H         1 UNK         0.0000 
     86 H86         1.1960   -1.8875   -2.4320 H         1 UNK         0.0000 
     87 H87        -0.3725   -3.8668   -0.7081 H         1 UNK         0.0000 
@<TRIPOS>BOND
     1    1   10 nc   
     2    1   12 nc   
     3    1   21 nc   
     4    1   23 nc   
     5    1   33 nc   
     6    1   35 nc   
     7    2   44 1    
     8    2    3 1    
     9    2   43 1    
    10    2   45 1    
    11    3    4 1    
    12    3   47 1    
    13    3   46 1    
    14    4   48 1    
    15    4    5 1    
    16    4   49 1    
    17    5   51 1    
    18    5   50 1    
    19    5    6 1    
    20    6    7 1    
    21    6   52 1    
    22    6   53 1    
    23    7    8 2    
    24    7   86 1    
    25    8    9 1    
    26    8   87 1    
    27    9   11 am   BACKBONE|DICT|INTERRES
    28    9   10 2    
    29   11   12 1    
    30   11   13 1    
    31   13   14 1    
    32   13   54 1    
    33   13   55 1    
    34   14   15 1    
    35   14   57 1    
    36   14   56 1    
    37   15   59 1    
    38   15   16 1    
    39   15   58 1    
    40   16   60 1    
    41   16   17 am   BACKBONE|DICT|INTERRES
    42   17   19 1    
    43   17   18 2    
    44   19   61 1    
    45   19   62 1    
    46   19   20 1    
    47   20   21 1    
    48   20   25 1    
    49   20   22 1    
    50   22   24 2    
    51   22   23 1    
    52   23   83 1    
    53   25   26 1    
    54   25   63 1    
    55   25   64 1    
    56   26   27 2    
    57   26   28 am   BACKBONE|DICT|INTERRES
    58   28   29 1    
    59   28   65 1    
    60   29   66 1    
    61   29   67 1    
    62   29   30 1    
    63   30   69 1    
    64   30   31 1    
    65   30   68 1    
    66   31   70 1    
    67   31   32 1    
    68   31   71 1    
    69   32   33 1    
    70   32   34 am   BACKBONE|DICT|INTERRES
    71   34   35 2    
    72   34   36 1    
    73   36   37 2    
    74   36   85 1    
    75   37   38 1    
    76   37   84 1    
    77   38   73 1    
    78   38   39 1    
    79   38   72 1    
    80   39   75 1    
    81   39   40 1    
    82   39   74 1    
    83   40   77 1    
    84   40   41 1    
    85   40   76 1    
    86   41   79 1    
    87   41   42 1    
    88   41   78 1    
    89   42   81 1    
    90   42   80 1    
    91   42   82 1    
@<TRIPOS>SUBSTRUCTURE
     1 UNK         1 GROUP             0       ****    0 ROOT    
