@<TRIPOS>MOLECULE
105_c2
112   117    1
SMALL
USER_CHARGES


@<TRIPOS>ATOM
      1 Fe1        -0.1168   -3.6712    0.5121 Fe        1 UNK         0.0000 
      2 O2          0.7822   -3.9465    6.0553 O.2       1 UNK         0.0000 
      3 C3         -0.3739   -4.1132    5.6775 C.2       1 UNK         0.0000 
      4 C4         -1.3522   -2.9255    5.6840 C.3       1 UNK         0.0000 
      5 C5         -1.9291   -2.3977    4.3295 C.3       1 UNK         0.0000 
      6 C6         -1.0648   -2.4018    3.0394 C.2       1 UNK         0.0000 
      7 O7         -1.4254   -2.9839    2.0088 O.co2     1 UNK         0.0000 
      8 N8          0.1499   -1.8354    2.9071 N.am      1 UNK         0.0000 
      9 O9          0.8358   -2.0537    1.7711 O.co2     1 UNK         0.0000 
     10 C10         0.6477   -0.7814    3.8178 C.3       1 UNK         0.0000 
     11 C11         1.9694   -0.0811    3.4256 C.3       1 UNK         0.0000 
     12 C12         2.3879    1.0531    4.3866 C.3       1 UNK         0.0000 
     13 C13         1.5076    2.3258    4.3262 C.3       1 UNK         0.0000 
     14 C14         1.7495    3.1697    3.0614 C.3       1 UNK         0.0000 
     15 N15         1.0015    4.4294    3.0363 N.am      1 UNK         0.0000 
     16 C16         1.2632    5.4281    2.1804 C.2       1 UNK         0.0000 
     17 O17         2.1448    5.3473    1.3321 O.2       1 UNK         0.0000 
     18 C18         0.3537    6.6689    2.2688 C.3       1 UNK         0.0000 
     19 C19         0.8826    7.9945    1.6410 C.3       1 UNK         0.0000 
     20 C20         1.1961    8.0187    0.1260 C.2       1 UNK         0.0000 
     21 O21         2.3456    8.2998   -0.2135 O.2       1 UNK         0.0000 
     22 N22         0.2208    7.7746   -0.7951 N.am      1 UNK         0.0000 
     23 O23        -1.0782    7.4853   -0.3298 O.3       1 UNK         0.0000 
     24 C24         0.4281    7.5982   -2.2397 C.3       1 UNK         0.0000 
     25 C25         1.2476    6.3465   -2.6188 C.3       1 UNK         0.0000 
     26 C26         0.5538    5.0107   -2.3102 C.3       1 UNK         0.0000 
     27 C27         1.4435    3.8015   -2.6521 C.3       1 UNK         0.0000 
     28 C28         0.6631    2.4960   -2.5068 C.3       1 UNK         0.0000 
     29 N29         1.4355    1.3108   -2.8587 N.am      1 UNK         0.0000 
     30 C30         0.8537    0.1226   -3.0625 C.2       1 UNK         0.0000 
     31 O31        -0.3616   -0.0352   -2.9860 O.2       1 UNK         0.0000 
     32 C32         1.7753   -1.0705   -3.3748 C.3       1 UNK         0.0000 
     33 C33         1.0429   -2.4211   -3.6183 C.3       1 UNK         0.0000 
     34 C34         0.3163   -2.9578   -2.3611 C.2       1 UNK         0.0000 
     35 O35         0.6542   -2.6300   -1.2226 O.co2     1 UNK         0.0000 
     36 N36        -0.7199   -3.8108   -2.4005 N.am      1 UNK         0.0000 
     37 O37        -1.3165   -4.1445   -1.2624 O.co2     1 UNK         0.0000 
     38 C38        -1.1535   -4.5969   -3.5630 C.3       1 UNK         0.0000 
     39 C39        -0.6265   -6.0504   -3.4808 C.3       1 UNK         0.0000 
     40 C40         0.9077   -6.1522   -3.6593 C.3       1 UNK         0.0000 
     41 C41         1.4169   -7.5565   -4.0327 C.3       1 UNK         0.0000 
     42 C42         1.2606   -8.6482   -2.9573 C.3       1 UNK         0.0000 
     43 N43         2.0945   -8.4212   -1.7688 N.am      1 UNK         0.0000 
     44 C44         1.6384   -8.3693   -0.5105 C.2       1 UNK         0.0000 
     45 O45         0.4588   -8.5350   -0.2161 O.2       1 UNK         0.0000 
     46 C46         2.6639   -8.1021    0.6136 C.3       1 UNK         0.0000 
     47 C47         2.8501   -6.6373    1.1178 C.3       1 UNK         0.0000 
     48 C48         1.6447   -5.6885    1.0465 C.2       1 UNK         0.0000 
     49 O49         1.6462   -4.5881    0.4892 O.co2     1 UNK         0.0000 
     50 N50         0.4244   -5.9656    1.5386 N.am      1 UNK         0.0000 
     51 O51        -0.5211   -5.1303    1.1795 O.co2     1 UNK         0.0000 
     52 C52         0.0759   -6.8634    2.6507 C.3       1 UNK         0.0000 
     53 C53         0.8507   -6.5695    3.9605 C.3       1 UNK         0.0000 
     54 C54        -0.0552   -6.5363    5.2065 C.3       1 UNK         0.0000 
     55 N55        -0.8530   -5.3060    5.2925 N.am      1 UNK         0.0000 
     56 H56        -2.1590   -3.1429    6.3818 H         1 UNK         0.0000 
     57 H57        -0.8569   -2.0842    6.1623 H         1 UNK         0.0000 
     58 H58        -2.7879   -3.0163    4.0939 H         1 UNK         0.0000 
     59 H59        -2.4137   -1.4379    4.4864 H         1 UNK         0.0000 
     60 H60        -0.1210   -0.0112    3.9140 H         1 UNK         0.0000 
     61 H61         0.7456   -1.1920    4.8227 H         1 UNK         0.0000 
     62 H62         1.8838    0.3061    2.4096 H         1 UNK         0.0000 
     63 H63         2.7622   -0.8307    3.3961 H         1 UNK         0.0000 
     64 H64         3.4250    1.3290    4.1826 H         1 UNK         0.0000 
     65 H65         2.3872    0.6529    5.4013 H         1 UNK         0.0000 
     66 H66         0.4509    2.0608    4.3971 H         1 UNK         0.0000 
     67 H67         1.7272    2.9332    5.2046 H         1 UNK         0.0000 
     68 H68         2.8192    3.3831    2.9890 H         1 UNK         0.0000 
     69 H69         1.5246    2.5882    2.1652 H         1 UNK         0.0000 
     70 H70         0.2034    4.5148    3.6419 H         1 UNK         0.0000 
     71 H71         0.1973    6.8716    3.3281 H         1 UNK         0.0000 
     72 H72        -0.6466    6.4319    1.9140 H         1 UNK         0.0000 
     73 H73         1.7413    8.3497    2.2116 H         1 UNK         0.0000 
     74 H74         0.1405    8.7723    1.8177 H         1 UNK         0.0000 
     75 H75        -1.5729    8.2849   -0.5401 H         1 UNK         0.0000 
     76 H76        -0.5490    7.5301   -2.7247 H         1 UNK         0.0000 
     77 H77         0.9028    8.4868   -2.6569 H         1 UNK         0.0000 
     78 H78         2.2227    6.3843   -2.1275 H         1 UNK         0.0000 
     79 H79         1.4453    6.3836   -3.6905 H         1 UNK         0.0000 
     80 H80        -0.3797    4.9605   -2.8778 H         1 UNK         0.0000 
     81 H81         0.2759    4.9696   -1.2524 H         1 UNK         0.0000 
     82 H82         2.3100    3.7970   -1.9867 H         1 UNK         0.0000 
     83 H83         1.8213    3.8933   -3.6726 H         1 UNK         0.0000 
     84 H84        -0.2291    2.5553   -3.1356 H         1 UNK         0.0000 
     85 H85         0.2828    2.4039   -1.4874 H         1 UNK         0.0000 
     86 H86         2.4370    1.3925   -2.9060 H         1 UNK         0.0000 
     87 H87         2.3277   -0.8111   -4.2756 H         1 UNK         0.0000 
     88 H88         2.5409   -1.1917   -2.6101 H         1 UNK         0.0000 
     89 H89         1.7836   -3.1624   -3.9116 H         1 UNK         0.0000 
     90 H90         0.4053   -2.3372   -4.4946 H         1 UNK         0.0000 
     91 H91        -2.2470   -4.5903   -3.5998 H         1 UNK         0.0000 
     92 H92        -0.8435   -4.1605   -4.5161 H         1 UNK         0.0000 
     93 H93        -1.1329   -6.6540   -4.2347 H         1 UNK         0.0000 
     94 H94        -0.9201   -6.4693   -2.5158 H         1 UNK         0.0000 
     95 H95         1.2164   -5.4628   -4.4465 H         1 UNK         0.0000 
     96 H96         1.4031   -5.8100   -2.7479 H         1 UNK         0.0000 
     97 H97         0.8940   -7.8710   -4.9363 H         1 UNK         0.0000 
     98 H98         2.4642   -7.4899   -4.3212 H         1 UNK         0.0000 
     99 H99         1.5201   -9.6150   -3.3836 H         1 UNK         0.0000 
    100 H100        0.2051   -8.7140   -2.6800 H         1 UNK         0.0000 
    101 H101        3.0915   -8.4417   -1.9087 H         1 UNK         0.0000 
    102 H102        3.6278   -8.5591    0.3968 H         1 UNK         0.0000 
    103 H103        2.3299   -8.6834    1.4713 H         1 UNK         0.0000 
    104 H104        3.2930   -6.6298    2.1114 H         1 UNK         0.0000 
    105 H105        3.6097   -6.1654    0.4983 H         1 UNK         0.0000 
    106 H106       -1.0018   -6.7791    2.8482 H         1 UNK         0.0000 
    107 H107        0.1952   -7.9027    2.3524 H         1 UNK         0.0000 
    108 H108        1.6496   -7.3049    4.0778 H         1 UNK         0.0000 
    109 H109        1.3632   -5.6082    3.9050 H         1 UNK         0.0000 
    110 H110        0.5240   -6.7038    6.1169 H         1 UNK         0.0000 
    111 H111       -0.7529   -7.3771    5.1478 H         1 UNK         0.0000 
    112 H112       -1.8284   -5.3715    5.0566 H         1 UNK         0.0000 
@<TRIPOS>BOND
     1    1    7 nc   
     2    1    9 nc   
     3    1   35 nc   
     4    1   37 nc   
     5    1   49 nc   
     6    1   51 nc   
     7    2    3 2    
     8    3    4 1    
     9    3   55 am   BACKBONE|DICT|INTERRES
    10    4   57 1    
    11    4   56 1    
    12    4    5 1    
    13    5   59 1    
    14    5    6 1    
    15    5   58 1    
    16    6    7 2    
    17    6    8 am   BACKBONE|DICT|INTERRES
    18    8   10 1    
    19    8    9 1    
    20   10   61 1    
    21   10   11 1    
    22   10   60 1    
    23   11   63 1    
    24   11   12 1    
    25   11   62 1    
    26   12   65 1    
    27   12   13 1    
    28   12   64 1    
    29   13   66 1    
    30   13   67 1    
    31   13   14 1    
    32   14   15 1    
    33   14   68 1    
    34   14   69 1    
    35   15   70 1    
    36   15   16 am   BACKBONE|DICT|INTERRES
    37   16   18 1    
    38   16   17 2    
    39   18   71 1    
    40   18   19 1    
    41   18   72 1    
    42   19   74 1    
    43   19   73 1    
    44   19   20 1    
    45   20   21 2    
    46   20   22 am   BACKBONE|DICT|INTERRES
    47   22   23 1    
    48   22   24 1    
    49   23   75 1    
    50   24   25 1    
    51   24   76 1    
    52   24   77 1    
    53   25   26 1    
    54   25   78 1    
    55   25   79 1    
    56   26   81 1    
    57   26   27 1    
    58   26   80 1    
    59   27   28 1    
    60   27   82 1    
    61   27   83 1    
    62   28   85 1    
    63   28   29 1    
    64   28   84 1    
    65   29   30 am   BACKBONE|DICT|INTERRES
    66   29   86 1    
    67   30   31 2    
    68   30   32 1    
    69   32   88 1    
    70   32   33 1    
    71   32   87 1    
    72   33   34 1    
    73   33   89 1    
    74   33   90 1    
    75   34   36 am   BACKBONE|DICT|INTERRES
    76   34   35 2    
    77   36   37 1    
    78   36   38 1    
    79   38   39 1    
    80   38   91 1    
    81   38   92 1    
    82   39   94 1    
    83   39   40 1    
    84   39   93 1    
    85   40   96 1    
    86   40   41 1    
    87   40   95 1    
    88   41   42 1    
    89   41   97 1    
    90   41   98 1    
    91   42  100 1    
    92   42   43 1    
    93   42   99 1    
    94   43   44 am   BACKBONE|DICT|INTERRES
    95   43  101 1    
    96   44   45 2    
    97   44   46 1    
    98   46   47 1    
    99   46  103 1    
   100   46  102 1    
   101   47  104 1    
   102   47   48 1    
   103   47  105 1    
   104   48   50 am   BACKBONE|DICT|INTERRES
   105   48   49 2    
   106   50   52 1    
   107   50   51 1    
   108   52  106 1    
   109   52   53 1    
   110   52  107 1    
   111   53  109 1    
   112   53  108 1    
   113   53   54 1    
   114   54   55 1    
   115   54  110 1    
   116   54  111 1    
   117   55  112 1    
@<TRIPOS>SUBSTRUCTURE
     1 UNK         1 GROUP             0       ****    0 ROOT    
