@<TRIPOS>MOLECULE
153_c1
132   137    1
SMALL
USER_CHARGES


@<TRIPOS>ATOM
      1 Fe1        -0.4197   -3.1239   -0.8180 Fe        1 UNK         0.0000 
      2 O2         -3.8483   -7.5008    4.9849 O.3       1 UNK         0.0000 
      3 C3         -4.9049   -6.6827    4.5062 C.3       1 UNK         0.0000 
      4 C4         -4.4293   -5.2403    4.1959 C.3       1 UNK         0.0000 
      5 C5         -3.4885   -4.9945    3.0044 C.2       1 UNK         0.0000 
      6 C6         -3.0669   -6.2540    2.2376 C.3       1 UNK         0.0000 
      7 C7         -3.1386   -3.7082    2.7184 C.2       1 UNK         0.0000 
      8 C8         -2.2931   -3.2294    1.6256 C.2       1 UNK         0.0000 
      9 O9         -1.7560   -3.9838    0.7979 O.co2     1 UNK         0.0000 
     10 N10        -2.1432   -1.8914    1.3826 N.am      1 UNK         0.0000 
     11 O11        -1.6613   -1.4992    0.2141 O.co2     1 UNK         0.0000 
     12 C12        -2.3892   -0.7442    2.2796 C.3       1 UNK         0.0000 
     13 C13        -1.1964    0.2328    2.5476 C.3       1 UNK         0.0000 
     14 C14        -0.5850    1.0143    1.3384 C.3       1 UNK         0.0000 
     15 C15         0.4953    2.0541    1.7402 C.3       1 UNK         0.0000 
     16 H16         1.1595    1.6234    2.4903 H         1 UNK         0.0000 
     17 C17        -0.1462    3.3176    2.3759 C.2       1 UNK         0.0000 
     18 O18        -1.3599    3.3918    2.5530 O.2       1 UNK         0.0000 
     19 N19         0.6698    4.3471    2.6376 N.am      1 UNK         0.0000 
     20 C20         0.1910    5.6997    2.8912 C.3       1 UNK         0.0000 
     21 H21        -0.8800    5.7864    2.6903 H         1 UNK         0.0000 
     22 C22         0.4335    6.0777    4.3693 C.3       1 UNK         0.0000 
     23 O23        -0.0873    7.3563    4.7049 O.3       1 UNK         0.0000 
     24 C24         0.9476    6.5774    1.8934 C.2       1 UNK         0.0000 
     25 O25         2.1742    6.6714    1.9712 O.2       1 UNK         0.0000 
     26 N26         0.2199    7.1516    0.9337 N.am      1 UNK         0.0000 
     27 C27         0.7262    8.0632   -0.0798 C.3       1 UNK         0.0000 
     28 H28         1.7815    8.2861    0.0915 H         1 UNK         0.0000 
     29 C29        -0.0492    9.3879    0.0839 C.3       1 UNK         0.0000 
     30 O30        -1.4531    9.1795    0.1178 O.3       1 UNK         0.0000 
     31 N31         1.3229    2.5640    0.6413 N.am      1 UNK         0.0000 
     32 C32         2.3699    2.1359   -0.0930 C.2       1 UNK         0.0000 
     33 O33         3.0523    2.9896   -0.6522 O.2       1 UNK         0.0000 
     34 C34         2.7633    0.6544   -0.3658 C.3       1 UNK         0.0000 
     35 H35         3.8461    0.7766   -0.4300 H         1 UNK         0.0000 
     36 C36         2.6758   -0.3700    0.8165 C.3       1 UNK         0.0000 
     37 C37         3.6933   -1.5975    0.9131 C.3       1 UNK         0.0000 
     38 C38         3.6983   -2.8524   -0.0730 C.3       1 UNK         0.0000 
     39 N39         2.4152   -3.5757   -0.2432 N.am      1 UNK         0.0000 
     40 O40         1.4150   -2.7384   -0.1718 O.co2     1 UNK         0.0000 
     41 C41         2.0941   -4.8872   -0.5184 C.2       1 UNK         0.0000 
     42 O42         0.8984   -5.1119   -0.7864 O.co2     1 UNK         0.0000 
     43 C43         2.9602   -6.0345   -0.3486 C.2       1 UNK         0.0000 
     44 C44         4.1861   -6.3293   -0.8416 C.2       1 UNK         0.0000 
     45 C45         5.0603   -5.4169   -1.6898 C.3       1 UNK         0.0000 
     46 C46         4.7246   -7.7276   -0.5475 C.3       1 UNK         0.0000 
     47 C47         6.2003   -8.0354   -0.8247 C.3       1 UNK         0.0000 
     48 O48         6.4440   -9.3675   -0.4177 O.3       1 UNK         0.0000 
     49 N49         2.4831    0.1523   -1.7356 N.am      1 UNK         0.0000 
     50 C50         1.7856    0.6013   -2.8164 C.2       1 UNK         0.0000 
     51 O51         2.1268    0.2218   -3.9330 O.2       1 UNK         0.0000 
     52 C52         0.6081    1.6125   -2.7529 C.3       1 UNK         0.0000 
     53 H53         0.1565    1.5396   -1.7630 H         1 UNK         0.0000 
     54 N54         1.1550    2.9577   -2.9557 N.am      1 UNK         0.0000 
     55 C55         0.6202    4.0758   -2.4451 C.2       1 UNK         0.0000 
     56 O56        -0.3511    4.0527   -1.6894 O.2       1 UNK         0.0000 
     57 C57         1.2686    5.4148   -2.8140 C.3       1 UNK         0.0000 
     58 N58         1.2782    6.2392   -1.6082 N.am      1 UNK         0.0000 
     59 C59         0.6542    7.4172   -1.4783 C.2       1 UNK         0.0000 
     60 O60         0.0814    7.9912   -2.4030 O.2       1 UNK         0.0000 
     61 C61        -0.5039    1.3857   -3.8419 C.3       1 UNK         0.0000 
     62 C62        -1.4860    0.1791   -3.6933 C.3       1 UNK         0.0000 
     63 C63        -1.0315   -1.1892   -4.3219 C.3       1 UNK         0.0000 
     64 N64        -0.9929   -2.3033   -3.3493 N.am      1 UNK         0.0000 
     65 O65        -0.2676   -1.9632   -2.3144 O.co2     1 UNK         0.0000 
     66 C66        -1.5841   -3.5381   -3.3611 C.2       1 UNK         0.0000 
     67 O67        -1.4049   -4.1852   -2.3213 O.co2     1 UNK         0.0000 
     68 C68        -2.3090   -4.0376   -4.5144 C.2       1 UNK         0.0000 
     69 C69        -2.8673   -5.2703   -4.6460 C.2       1 UNK         0.0000 
     70 C70        -2.8633   -6.4121   -3.6103 C.3       1 UNK         0.0000 
     71 C71        -3.5743   -5.5769   -5.9642 C.3       1 UNK         0.0000 
     72 C72        -4.2098   -6.9688   -6.1669 C.3       1 UNK         0.0000 
     73 O73        -3.2265   -7.9829   -6.2849 O.3       1 UNK         0.0000 
     74 H74        -3.5122   -7.1378    5.8087 H         1 UNK         0.0000 
     75 H75        -5.3554   -7.1557    3.6276 H         1 UNK         0.0000 
     76 H76        -5.6901   -6.6651    5.2701 H         1 UNK         0.0000 
     77 H77        -3.9522   -4.8344    5.0867 H         1 UNK         0.0000 
     78 H78        -5.3243   -4.6364    4.0337 H         1 UNK         0.0000 
     79 H79        -3.9461   -6.7888    1.8787 H         1 UNK         0.0000 
     80 H80        -2.5068   -6.9181    2.8935 H         1 UNK         0.0000 
     81 H81        -2.4421   -6.1024    1.3634 H         1 UNK         0.0000 
     82 H82        -3.1872   -0.1770    1.8007 H         1 UNK         0.0000 
     83 H83        -2.8157   -1.0104    3.2478 H         1 UNK         0.0000 
     84 H84        -0.4157   -0.3194    3.0638 H         1 UNK         0.0000 
     85 H85        -1.5609    0.9583    3.2759 H         1 UNK         0.0000 
     86 H86        -1.3794    1.5187    0.7808 H         1 UNK         0.0000 
     87 H87        -0.1497    0.3280    0.6199 H         1 UNK         0.0000 
     88 H88         1.6611    4.2815    2.4589 H         1 UNK         0.0000 
     89 H89        -0.0380    5.3311    5.0096 H         1 UNK         0.0000 
     90 H90         1.5007    6.0620    4.5925 H         1 UNK         0.0000 
     91 H91         0.1114    7.5448    5.6257 H         1 UNK         0.0000 
     92 H92        -0.7845    7.0260    0.9002 H         1 UNK         0.0000 
     93 H93         0.2517    9.8670    1.0173 H         1 UNK         0.0000 
     94 H94         0.1964   10.0849   -0.7183 H         1 UNK         0.0000 
     95 H95        -1.8765    9.9532   -0.2658 H         1 UNK         0.0000 
     96 H96         1.0916    3.5271    0.4600 H         1 UNK         0.0000 
     97 H97         1.6489   -0.7013    0.9237 H         1 UNK         0.0000 
     98 H98         2.8279    0.2000    1.7350 H         1 UNK         0.0000 
     99 H99         4.7033   -1.1987    0.9375 H         1 UNK         0.0000 
    100 H100        3.5482   -2.0284    1.9034 H         1 UNK         0.0000 
    101 H101        3.9920   -2.4887   -1.0668 H         1 UNK         0.0000 
    102 H102        4.4901   -3.5627    0.2169 H         1 UNK         0.0000 
    103 H103        2.4738   -6.7997    0.2513 H         1 UNK         0.0000 
    104 H104        5.4513   -5.9435   -2.5591 H         1 UNK         0.0000 
    105 H105        5.8991   -5.0532   -1.0915 H         1 UNK         0.0000 
    106 H106        4.5106   -4.5582   -2.0596 H         1 UNK         0.0000 
    107 H107        4.1321   -8.4252   -1.1372 H         1 UNK         0.0000 
    108 H108        4.5133   -7.9838    0.4919 H         1 UNK         0.0000 
    109 H109        6.4341   -7.9453   -1.8881 H         1 UNK         0.0000 
    110 H110        6.8563   -7.3569   -0.2757 H         1 UNK         0.0000 
    111 H111        7.3677   -9.5844   -0.5735 H         1 UNK         0.0000 
    112 H112        3.0987   -0.6019   -1.9883 H         1 UNK         0.0000 
    113 H113        2.0058    2.9923   -3.4958 H         1 UNK         0.0000 
    114 H114        2.2899    5.2723   -3.1650 H         1 UNK         0.0000 
    115 H115        0.7018    5.8808   -3.6247 H         1 UNK         0.0000 
    116 H116        1.6974    5.8306   -0.7877 H         1 UNK         0.0000 
    117 H117       -0.0550    1.3784   -4.8377 H         1 UNK         0.0000 
    118 H118       -1.1287    2.2827   -3.8455 H         1 UNK         0.0000 
    119 H119       -2.4544    0.4446   -4.1353 H         1 UNK         0.0000 
    120 H120       -1.7049    0.0757   -2.6268 H         1 UNK         0.0000 
    121 H121       -0.0096   -1.0853   -4.6945 H         1 UNK         0.0000 
    122 H122       -1.6309   -1.4118   -5.2027 H         1 UNK         0.0000 
    123 H123       -2.3467   -7.2792   -4.0208 H         1 UNK         0.0000 
    124 H124       -3.8878   -6.7002   -3.3851 H         1 UNK         0.0000 
    125 H125       -2.3885   -6.2205   -2.6545 H         1 UNK         0.0000 
    126 H126       -4.3687   -4.8379   -6.0606 H         1 UNK         0.0000 
    127 H127       -2.8809   -5.3799   -6.7838 H         1 UNK         0.0000 
    128 H128       -4.8924   -7.2156   -5.3494 H         1 UNK         0.0000 
    129 H129       -4.8174   -6.9730   -7.0747 H         1 UNK         0.0000 
    130 H130       -2.6037   -7.7421   -6.9756 H         1 UNK         0.0000 
    131 H131       -3.5573   -2.9374    3.3455 H         1 UNK         0.0000 
    132 H132       -2.3838   -3.3469   -5.3398 H         1 UNK         0.0000 
@<TRIPOS>BOND
     1    1    9 nc   
     2    1   11 nc   
     3    1   40 nc   
     4    1   42 nc   
     5    1   65 nc   
     6    1   67 nc   
     7    2   74 1    
     8    2    3 1    
     9    3   76 1    
    10    3    4 1    
    11    3   75 1    
    12    4   77 1    
    13    4    5 1    
    14    4   78 1    
    15    5    7 2    
    16    5    6 1    
    17    6   80 1    
    18    6   79 1    
    19    6   81 1    
    20    7    8 1    
    21    7  131 1    
    22    8    9 2    
    23    8   10 am   BACKBONE|DICT|INTERRES
    24   10   12 1    
    25   10   11 1    
    26   12   13 1    
    27   12   83 1    
    28   12   82 1    
    29   13   84 1    
    30   13   85 1    
    31   13   14 1    
    32   14   15 1    
    33   14   86 1    
    34   14   87 1    
    35   15   17 1    
    36   15   16 1    
    37   15   31 1    
    38   17   19 am   BACKBONE|DICT|INTERRES
    39   17   18 2    
    40   19   88 1    
    41   19   20 1    
    42   20   21 1    
    43   20   22 1    
    44   20   24 1    
    45   22   90 1    
    46   22   23 1    
    47   22   89 1    
    48   23   91 1    
    49   24   25 2    
    50   24   26 am   BACKBONE|DICT|INTERRES
    51   26   27 1    
    52   26   92 1    
    53   27   29 1    
    54   27   28 1    
    55   27   59 1    
    56   29   93 1    
    57   29   30 1    
    58   29   94 1    
    59   30   95 1    
    60   31   32 am   BACKBONE|DICT|INTERRES
    61   31   96 1    
    62   32   33 2    
    63   32   34 1    
    64   34   35 1    
    65   34   36 1    
    66   34   49 1    
    67   36   37 1    
    68   36   98 1    
    69   36   97 1    
    70   37   99 1    
    71   37  100 1    
    72   37   38 1    
    73   38  102 1    
    74   38   39 1    
    75   38  101 1    
    76   39   40 1    
    77   39   41 am   BACKBONE|DICT|INTERRES
    78   41   42 2    
    79   41   43 1    
    80   43  103 1    
    81   43   44 2    
    82   44   46 1    
    83   44   45 1    
    84   45  105 1    
    85   45  104 1    
    86   45  106 1    
    87   46  108 1    
    88   46   47 1    
    89   46  107 1    
    90   47   48 1    
    91   47  110 1    
    92   47  109 1    
    93   48  111 1    
    94   49   50 am   BACKBONE|DICT|INTERRES
    95   49  112 1    
    96   50   52 1    
    97   50   51 2    
    98   52   53 1    
    99   52   54 1    
   100   52   61 1    
   101   54   55 am   BACKBONE|DICT|INTERRES
   102   54  113 1    
   103   55   56 2    
   104   55   57 1    
   105   57   58 1    
   106   57  114 1    
   107   57  115 1    
   108   58   59 am   BACKBONE|DICT|INTERRES
   109   58  116 1    
   110   59   60 2    
   111   61  118 1    
   112   61   62 1    
   113   61  117 1    
   114   62  120 1    
   115   62   63 1    
   116   62  119 1    
   117   63   64 1    
   118   63  121 1    
   119   63  122 1    
   120   64   65 1    
   121   64   66 am   BACKBONE|DICT|INTERRES
   122   66   67 2    
   123   66   68 1    
   124   68   69 2    
   125   68  132 1    
   126   69   70 1    
   127   69   71 1    
   128   70  124 1    
   129   70  125 1    
   130   70  123 1    
   131   71   72 1    
   132   71  126 1    
   133   71  127 1    
   134   72   73 1    
   135   72  128 1    
   136   72  129 1    
   137   73  130 1    
@<TRIPOS>SUBSTRUCTURE
     1 UNK         1 GROUP             0       ****    0 ROOT    
