@<TRIPOS>MOLECULE
109_c1
79   84    1
SMALL
USER_CHARGES


@<TRIPOS>ATOM
      1 Fe1         0.2770    0.1602   -0.2360 Fe        1 UNK         0.0000 
      2 O2          1.0203    1.5107   -1.7056 O.co2     1 UNK         0.0000 
      3 N3          0.0978    1.7007   -2.6294 N.am      1 UNK         0.0000 
      4 C4          0.5108    2.6105   -3.7070 C.3       1 UNK         0.0000 
      5 C5          0.1225    4.0958   -3.4602 C.3       1 UNK         0.0000 
      6 C6          0.5536    4.7009   -2.0946 C.3       1 UNK         0.0000 
      7 C7         -0.4817    4.4920   -0.9604 C.3       1 UNK         0.0000 
      8 N8          0.1038    4.5875    0.3753 N.am      1 UNK         0.0000 
      9 C9         -0.5926    4.4403    1.5078 C.2       1 UNK         0.0000 
     10 O10        -1.8126    4.3387    1.5185 O.2       1 UNK         0.0000 
     11 C11         0.2073    4.2304    2.8104 C.3       1 UNK         0.0000 
     12 C12         1.1230    2.9613    2.8798 C.3       1 UNK         0.0000 
     13 C13         0.6670    1.7251    2.0781 C.2       1 UNK         0.0000 
     14 O14         1.0710    1.4860    0.9370 O.co2     1 UNK         0.0000 
     15 N15        -0.3000    0.8826    2.4738 N.am      1 UNK         0.0000 
     16 O16        -0.7595    0.0139    1.5920 O.co2     1 UNK         0.0000 
     17 C17        -0.8825    0.8167    3.8147 C.3       1 UNK         0.0000 
     18 C18         0.0778    0.2419    4.8890 C.3       1 UNK         0.0000 
     19 C19         0.0309   -1.2818    5.1606 C.3       1 UNK         0.0000 
     20 C20         0.6909   -2.2095    4.1132 C.3       1 UNK         0.0000 
     21 N21        -0.2114   -2.6925    3.0652 N.am      1 UNK         0.0000 
     22 C22        -0.0161   -3.8411    2.3941 C.2       1 UNK         0.0000 
     23 O23         0.9289   -4.5968    2.6010 O.2       1 UNK         0.0000 
     24 C24        -0.9668   -4.1631    1.2256 C.3       1 UNK         0.0000 
     25 C25        -0.2959   -4.0868   -0.1751 C.3       1 UNK         0.0000 
     26 C26         0.2302   -2.6720   -0.4697 C.2       1 UNK         0.0000 
     27 O27        -0.4598   -1.6686   -0.3392 O.co2     1 UNK         0.0000 
     28 N28         1.5114   -2.3678   -0.7766 N.am      1 UNK         0.0000 
     29 O29         1.8502   -1.0822   -0.7207 O.co2     1 UNK         0.0000 
     30 C30         2.3862   -3.2387   -1.5690 C.3       1 UNK         0.0000 
     31 C31         1.8602   -3.4032   -3.0241 C.3       1 UNK         0.0000 
     32 C32         1.8488   -2.0954   -3.8564 C.3       1 UNK         0.0000 
     33 C33         0.8069   -2.0868   -4.9898 C.3       1 UNK         0.0000 
     34 N34        -0.5111   -1.6346   -4.5230 N.am      1 UNK         0.0000 
     35 C35        -1.1830   -0.5926   -5.0293 C.2       1 UNK         0.0000 
     36 O36        -0.8336    0.0171   -6.0325 O.2       1 UNK         0.0000 
     37 C37        -2.4037   -0.1082   -4.2373 C.3       1 UNK         0.0000 
     38 C38        -2.2057    1.2749   -3.5620 C.3       1 UNK         0.0000 
     39 C39        -1.1591    1.2483   -2.4439 C.2       1 UNK         0.0000 
     40 O40        -1.4014    0.7418   -1.3395 O.co2     1 UNK         0.0000 
     41 H41         0.1179    2.2720   -4.6663 H         1 UNK         0.0000 
     42 H42         1.5993    2.5487   -3.8306 H         1 UNK         0.0000 
     43 H43         0.5615    4.6848   -4.2665 H         1 UNK         0.0000 
     44 H44        -0.9529    4.1982   -3.5981 H         1 UNK         0.0000 
     45 H45         0.7051    5.7767   -2.2157 H         1 UNK         0.0000 
     46 H46         1.5276    4.2769   -1.8176 H         1 UNK         0.0000 
     47 H47        -1.3392    5.1630   -1.0704 H         1 UNK         0.0000 
     48 H48        -0.9062    3.4898   -1.0277 H         1 UNK         0.0000 
     49 H49         1.0975    4.7079    0.4292 H         1 UNK         0.0000 
     50 H50        -0.5094    4.1564    3.6342 H         1 UNK         0.0000 
     51 H51         0.7788    5.1257    3.0473 H         1 UNK         0.0000 
     52 H52         1.4006    2.7274    3.9113 H         1 UNK         0.0000 
     53 H53         2.0716    3.2413    2.4222 H         1 UNK         0.0000 
     54 H54        -1.8328    0.2679    3.8218 H         1 UNK         0.0000 
     55 H55        -1.1550    1.8395    4.0903 H         1 UNK         0.0000 
     56 H56        -0.1782    0.7351    5.8232 H         1 UNK         0.0000 
     57 H57         1.1076    0.5321    4.6732 H         1 UNK         0.0000 
     58 H58         0.5946   -1.4192    6.0822 H         1 UNK         0.0000 
     59 H59        -0.9846   -1.6086    5.3954 H         1 UNK         0.0000 
     60 H60         1.5410   -1.7109    3.6387 H         1 UNK         0.0000 
     61 H61         1.1220   -3.0669    4.6424 H         1 UNK         0.0000 
     62 H62        -0.9222   -2.0471    2.7430 H         1 UNK         0.0000 
     63 H63        -1.8847   -3.5802    1.2587 H         1 UNK         0.0000 
     64 H64        -1.3098   -5.1826    1.3739 H         1 UNK         0.0000 
     65 H65        -1.0542   -4.3271   -0.9189 H         1 UNK         0.0000 
     66 H66         0.4470   -4.8697   -0.2958 H         1 UNK         0.0000 
     67 H67         3.4058   -2.8250   -1.5954 H         1 UNK         0.0000 
     68 H68         2.4874   -4.2170   -1.0841 H         1 UNK         0.0000 
     69 H69         2.4698   -4.1481   -3.5489 H         1 UNK         0.0000 
     70 H70         0.8612   -3.8428   -2.9646 H         1 UNK         0.0000 
     71 H71         1.6763   -1.2076   -3.2345 H         1 UNK         0.0000 
     72 H72         2.8496   -1.9483   -4.2618 H         1 UNK         0.0000 
     73 H73         1.1762   -1.4545   -5.8023 H         1 UNK         0.0000 
     74 H74         0.7002   -3.0878   -5.4146 H         1 UNK         0.0000 
     75 H75        -0.9696   -2.1809   -3.8152 H         1 UNK         0.0000 
     76 H76        -3.2094   -0.0063   -4.9614 H         1 UNK         0.0000 
     77 H77        -2.7830   -0.8474   -3.5282 H         1 UNK         0.0000 
     78 H78        -2.0558    2.0606   -4.3026 H         1 UNK         0.0000 
     79 H79        -3.1442    1.5627   -3.0933 H         1 UNK         0.0000 
@<TRIPOS>BOND
     1    1    2 nc   
     2    1   14 nc   
     3    1   16 nc   
     4    1   27 nc   
     5    1   29 nc   
     6    1   40 nc   
     7    2    3 1    
     8    3   39 am   BACKBONE|DICT|INTERRES
     9    3    4 1    
    10    4   42 1    
    11    4    5 1    
    12    4   41 1    
    13    5    6 1    
    14    5   43 1    
    15    5   44 1    
    16    6   46 1    
    17    6    7 1    
    18    6   45 1    
    19    7    8 1    
    20    7   47 1    
    21    7   48 1    
    22    8   49 1    
    23    8    9 am   BACKBONE|DICT|INTERRES
    24    9   11 1    
    25    9   10 2    
    26   11   51 1    
    27   11   50 1    
    28   11   12 1    
    29   12   52 1    
    30   12   13 1    
    31   12   53 1    
    32   13   14 2    
    33   13   15 am   BACKBONE|DICT|INTERRES
    34   15   17 1    
    35   15   16 1    
    36   17   54 1    
    37   17   55 1    
    38   17   18 1    
    39   18   19 1    
    40   18   56 1    
    41   18   57 1    
    42   19   59 1    
    43   19   58 1    
    44   19   20 1    
    45   20   61 1    
    46   20   21 1    
    47   20   60 1    
    48   21   22 am   BACKBONE|DICT|INTERRES
    49   21   62 1    
    50   22   23 2    
    51   22   24 1    
    52   24   63 1    
    53   24   64 1    
    54   24   25 1    
    55   25   26 1    
    56   25   65 1    
    57   25   66 1    
    58   26   27 2    
    59   26   28 am   BACKBONE|DICT|INTERRES
    60   28   29 1    
    61   28   30 1    
    62   30   68 1    
    63   30   31 1    
    64   30   67 1    
    65   31   70 1    
    66   31   32 1    
    67   31   69 1    
    68   32   71 1    
    69   32   33 1    
    70   32   72 1    
    71   33   34 1    
    72   33   73 1    
    73   33   74 1    
    74   34   75 1    
    75   34   35 am   BACKBONE|DICT|INTERRES
    76   35   37 1    
    77   35   36 2    
    78   37   38 1    
    79   37   77 1    
    80   37   76 1    
    81   38   79 1    
    82   38   39 1    
    83   38   78 1    
    84   39   40 2    
@<TRIPOS>SUBSTRUCTURE
     1 UNK         1 GROUP             0       ****    0 ROOT    
