@<TRIPOS>MOLECULE
157_c1
169   174    1
SMALL
USER_CHARGES


@<TRIPOS>ATOM
      1 Fe1        -2.2348   -4.7896   -4.5100 Fe        1 UNK         0.0000 
      2 O2         -3.9475   -5.7562   -4.5598 O.co2     1 UNK         0.0000 
      3 C3         -5.0707   -5.9132   -4.1486 C.2       1 UNK         0.0000 
      4 C4         -6.0912   -6.8732   -4.6771 C.3       1 UNK         0.0000 
      5 N5         -5.1848   -5.0652   -3.2176 N.am      1 UNK         0.0000 
      6 O6         -3.9517   -4.5644   -3.2723 O.co2     1 UNK         0.0000 
      7 C7         -6.3373   -4.6946   -2.4145 C.3       1 UNK         0.0000 
      8 C8         -6.0873   -3.4599   -1.5344 C.3       1 UNK         0.0000 
      9 C9         -7.4067   -3.0367   -0.8496 C.3       1 UNK         0.0000 
     10 C10        -7.3494   -1.7374   -0.0014 C.3       1 UNK         0.0000 
     11 H11        -8.3948   -1.5518    0.3347 H         1 UNK         0.0000 
     12 N12        -6.5806   -1.9354    1.2275 N.am      1 UNK         0.0000 
     13 C13        -6.5807   -1.0122    2.2375 C.2       1 UNK         0.0000 
     14 O14        -7.1515    0.0603    2.0979 O.2       1 UNK         0.0000 
     15 C15        -5.9605   -1.2891    3.5865 C.3       1 UNK         0.0000 
     16 H16        -6.0334   -0.3534    4.1876 H         1 UNK         0.0000 
     17 C17        -6.7627   -2.3552    4.3491 C.3       1 UNK         0.0000 
     18 O18        -8.0873   -1.9286    4.5194 O.3       1 UNK         0.0000 
     19 N19        -4.5777   -1.7267    3.4798 N.am      1 UNK         0.0000 
     20 C20        -3.5278   -1.0012    3.9576 C.2       1 UNK         0.0000 
     21 O21        -3.6953    0.1468    4.3440 O.2       1 UNK         0.0000 
     22 C22        -2.1580   -1.6447    4.0795 C.3       1 UNK         0.0000 
     23 H23        -2.2468   -2.7006    3.7433 H         1 UNK         0.0000 
     24 C24        -1.6850   -1.7247    5.5714 C.3       1 UNK         0.0000 
     25 C25        -1.4411   -0.3611    6.2517 C.3       1 UNK         0.0000 
     26 C26        -2.6689   -2.5462    6.4240 C.3       1 UNK         0.0000 
     27 N27        -1.1566   -0.9589    3.2654 N.am      1 UNK         0.0000 
     28 C28        -0.3658   -1.6067    2.3524 C.2       1 UNK         0.0000 
     29 O29        -0.5223   -2.7978    2.1235 O.2       1 UNK         0.0000 
     30 C30         0.8131   -0.9002    1.7207 C.3       1 UNK         0.0000 
     31 N31         2.0062   -1.4445    2.3351 N.am      1 UNK         0.0000 
     32 C32         3.1431   -1.8983    1.7328 C.2       1 UNK         0.0000 
     33 O33         4.0258   -2.3260    2.4658 O.2       1 UNK         0.0000 
     34 C34         3.4701   -1.8285    0.2422 C.3       1 UNK         0.0000 
     35 H35         4.5566   -2.0939    0.2422 H         1 UNK         0.0000 
     36 C36         3.0426   -2.9750   -0.7265 C.3       1 UNK         0.0000 
     37 C37         1.6183   -3.2201   -1.3124 C.3       1 UNK         0.0000 
     38 C38         1.7715   -4.4444   -2.2755 C.3       1 UNK         0.0000 
     39 N39         0.6294   -4.8920   -3.0706 N.am      1 UNK         0.0000 
     40 O40        -0.6406   -4.4980   -3.1638 O.co2     1 UNK         0.0000 
     41 C41         0.6056   -5.7981   -3.9607 C.2       1 UNK         0.0000 
     42 O42        -0.5131   -5.7792   -4.4085 O.co2     1 UNK         0.0000 
     43 C43         1.7246   -6.6917   -4.3975 C.3       1 UNK         0.0000 
     44 N44         3.4248   -0.4731   -0.3047 N.am      1 UNK         0.0000 
     45 C45         4.4362    0.4335   -0.0765 C.2       1 UNK         0.0000 
     46 O46         5.3747    0.1279    0.6473 O.2       1 UNK         0.0000 
     47 C47         4.4231    1.8270   -0.7001 C.3       1 UNK         0.0000 
     48 H48         3.5152    2.3531   -0.3278 H         1 UNK         0.0000 
     49 N49         5.5784    2.6626   -0.3443 N.am      1 UNK         0.0000 
     50 C50         6.8849    2.3983   -0.6663 C.2       1 UNK         0.0000 
     51 O51         7.2123    1.3090   -1.1139 O.2       1 UNK         0.0000 
     52 C52         7.9202    3.5065   -0.5932 C.3       1 UNK         0.0000 
     53 C53         9.0033    3.3485    0.4421 C.2       1 UNK         0.0000 
     54 C54         9.9334    4.3203    0.5559 C.2       1 UNK         0.0000 
     55 C55        10.9698    4.3530    1.6509 C.3       1 UNK         0.0000 
     56 C56        12.4405    4.4562    1.2015 C.3       1 UNK         0.0000 
     57 C57        12.7345    5.6550    0.2773 C.3       1 UNK         0.0000 
     58 C58        14.2285    6.0400    0.2369 C.3       1 UNK         0.0000 
     59 C59        15.1825    4.9111   -0.1781 C.3       1 UNK         0.0000 
     60 C60        16.6328    5.3990   -0.1552 C.3       1 UNK         0.0000 
     61 C61         4.3375    1.8190   -2.2352 C.3       1 UNK         0.0000 
     62 O62         3.0814    1.4752   -2.6925 O.3       1 UNK         0.0000 
     63 C63         2.7220    1.6696   -3.9891 C.2       1 UNK         0.0000 
     64 O64         3.5636    2.0042   -4.8140 O.2       1 UNK         0.0000 
     65 C65         1.2629    1.5657   -4.3680 C.3       1 UNK         0.0000 
     66 N66         1.0026    1.9776   -5.7401 N.am      1 UNK         0.0000 
     67 C67        -0.1962    2.0771   -6.4047 C.2       1 UNK         0.0000 
     68 O68        -0.1331    2.4842   -7.5582 O.2       1 UNK         0.0000 
     69 C69        -1.6416    1.7738   -5.9251 C.3       1 UNK         0.0000 
     70 H70        -2.1732    2.7388   -6.0740 H         1 UNK         0.0000 
     71 C71        -2.2294    0.7049   -6.8959 C.3       1 UNK         0.0000 
     72 C72        -1.6384   -0.6774   -6.6121 C.3       1 UNK         0.0000 
     73 C73        -2.2171   -1.7878   -7.5063 C.3       1 UNK         0.0000 
     74 N74        -1.9534   -3.0516   -6.8505 N.am      1 UNK         0.0000 
     75 O75        -2.2706   -3.4345   -5.6185 O.co2     1 UNK         0.0000 
     76 C76        -1.9117   -4.2176   -7.1625 C.2       1 UNK         0.0000 
     77 O77        -2.0856   -4.7053   -6.0371 O.co2     1 UNK         0.0000 
     78 C78        -1.8243   -4.8802   -8.4992 C.3       1 UNK         0.0000 
     79 N79        -1.8293    1.3763   -4.5213 N.am      1 UNK         0.0000 
     80 C80        -3.0089    1.3843   -3.8247 C.2       1 UNK         0.0000 
     81 O81        -2.9950    1.0184   -2.6562 O.2       1 UNK         0.0000 
     82 C82        -4.3235    1.8466   -4.4116 C.3       1 UNK         0.0000 
     83 N83        -5.3847    1.8352   -3.4125 N.am      1 UNK         0.0000 
     84 C84        -6.5056    1.0652   -3.5201 C.2       1 UNK         0.0000 
     85 O85        -6.6456    0.3012   -4.4660 O.2       1 UNK         0.0000 
     86 C86        -7.6203    1.1737   -2.4947 C.3       1 UNK         0.0000 
     87 H87        -7.3550    1.9317   -1.7222 H         1 UNK         0.0000 
     88 N88        -7.8949   -0.1314   -1.8469 N.4       1 UNK         0.0000 
     89 H89        -7.9841   -0.8801   -2.5712 H         1 UNK         0.0000 
     90 H90        -8.8104   -0.0582   -1.3450 H         1 UNK         0.0000 
     91 C91        -6.8879   -0.4906   -0.8276 C.3       1 UNK         0.0000 
     92 C92        -8.8827    1.7054   -3.2036 C.3       1 UNK         0.0000 
     93 O93        -9.9063    1.9205   -2.2703 O.3       1 UNK         0.0000 
     94 H94        -7.0433   -6.7924   -4.1130 H         1 UNK         0.0000 
     95 H95        -6.2860   -6.6552   -5.7474 H         1 UNK         0.0000 
     96 H96        -5.7058   -7.9095   -4.5794 H         1 UNK         0.0000 
     97 H97        -7.1650   -4.4475   -3.1153 H         1 UNK         0.0000 
     98 H98        -6.6508   -5.5591   -1.7897 H         1 UNK         0.0000 
     99 H99        -5.7395   -2.6464   -2.2028 H         1 UNK         0.0000 
    100 H100       -5.3006   -3.6722   -0.7794 H         1 UNK         0.0000 
    101 H101       -8.1754   -2.8956   -1.6379 H         1 UNK         0.0000 
    102 H102       -7.7659   -3.8672   -0.2020 H         1 UNK         0.0000 
    103 H103       -6.1059   -2.8373    1.3837 H         1 UNK         0.0000 
    104 H104       -6.2927   -2.5034    5.3481 H         1 UNK         0.0000 
    105 H105       -6.7470   -3.3162    3.7876 H         1 UNK         0.0000 
    106 H106       -8.5382   -2.6334    5.0532 H         1 UNK         0.0000 
    107 H107       -4.4038   -2.6711    3.1029 H         1 UNK         0.0000 
    108 H108       -0.7124   -2.2648    5.5748 H         1 UNK         0.0000 
    109 H109       -0.6888    0.2366    5.6998 H         1 UNK         0.0000 
    110 H110       -2.3734    0.2294    6.3535 H         1 UNK         0.0000 
    111 H111       -1.0445   -0.5188    7.2777 H         1 UNK         0.0000 
    112 H112       -2.8032   -3.5599    5.9918 H         1 UNK         0.0000 
    113 H113       -2.2797   -2.6624    7.4586 H         1 UNK         0.0000 
    114 H114       -3.6609   -2.0482    6.4821 H         1 UNK         0.0000 
    115 H115       -0.9745    0.0369    3.4591 H         1 UNK         0.0000 
    116 H116        0.7670    0.1783    1.9838 H         1 UNK         0.0000 
    117 H117        0.8123   -0.9890    0.6152 H         1 UNK         0.0000 
    118 H118        1.9966   -1.4673    3.3694 H         1 UNK         0.0000 
    119 H119        3.7044   -2.8396   -1.6138 H         1 UNK         0.0000 
    120 H120        3.3497   -3.9222   -0.2258 H         1 UNK         0.0000 
    121 H121        0.8876   -3.4393   -0.5051 H         1 UNK         0.0000 
    122 H122        1.2867   -2.3267   -1.8829 H         1 UNK         0.0000 
    123 H123        2.1272   -5.3145   -1.6803 H         1 UNK         0.0000 
    124 H124        2.5698   -4.1852   -3.0056 H         1 UNK         0.0000 
    125 H125        2.0677   -7.3035   -3.5369 H         1 UNK         0.0000 
    126 H126        1.3782   -7.3689   -5.2061 H         1 UNK         0.0000 
    127 H127        2.5701   -6.0797   -4.7739 H         1 UNK         0.0000 
    128 H128        2.6333   -0.2162   -0.9108 H         1 UNK         0.0000 
    129 H129        5.3587    3.5828    0.0670 H         1 UNK         0.0000 
    130 H130        7.4057    4.4652   -0.3660 H         1 UNK         0.0000 
    131 H131        8.3793    3.6077   -1.6011 H         1 UNK         0.0000 
    132 H132        8.9976    2.4998    1.1198 H         1 UNK         0.0000 
    133 H133        9.8991    5.1678   -0.1249 H         1 UNK         0.0000 
    134 H134       10.7463    5.2569    2.2584 H         1 UNK         0.0000 
    135 H135       10.8663    3.4693    2.3164 H         1 UNK         0.0000 
    136 H136       12.7707    3.5181    0.7062 H         1 UNK         0.0000 
    137 H137       13.0270    4.5788    2.1389 H         1 UNK         0.0000 
    138 H138       12.3530    5.4336   -0.7435 H         1 UNK         0.0000 
    139 H139       12.2030    6.5543    0.6575 H         1 UNK         0.0000 
    140 H140       14.3478    6.8955   -0.4647 H         1 UNK         0.0000 
    141 H141       14.5219    6.3887    1.2517 H         1 UNK         0.0000 
    142 H142       15.0978    4.0648    0.5359 H         1 UNK         0.0000 
    143 H143       14.9306    4.5516   -1.1982 H         1 UNK         0.0000 
    144 H144       16.7766    6.2306   -0.8776 H         1 UNK         0.0000 
    145 H145       17.3167    4.5680   -0.4280 H         1 UNK         0.0000 
    146 H146       16.9058    5.7560    0.8621 H         1 UNK         0.0000 
    147 H147        5.1238    1.1821   -2.6955 H         1 UNK         0.0000 
    148 H148        4.5149    2.8723   -2.5567 H         1 UNK         0.0000 
    149 H149        0.9678    0.5060   -4.2176 H         1 UNK         0.0000 
    150 H150        0.7201    2.2538   -3.6845 H         1 UNK         0.0000 
    151 H151        1.8197    2.2590   -6.3034 H         1 UNK         0.0000 
    152 H152       -3.3211    0.6300   -6.7867 H         1 UNK         0.0000 
    153 H153       -2.0564    0.9896   -7.9561 H         1 UNK         0.0000 
    154 H154       -1.8957   -0.8891   -5.5558 H         1 UNK         0.0000 
    155 H155       -0.5299   -0.6851   -6.6898 H         1 UNK         0.0000 
    156 H156       -1.7791   -1.7434   -8.5260 H         1 UNK         0.0000 
    157 H157       -3.3216   -1.6807   -7.5796 H         1 UNK         0.0000 
    158 H158       -1.8659   -5.9820   -8.3761 H         1 UNK         0.0000 
    159 H159       -0.8661   -4.6028   -8.9856 H         1 UNK         0.0000 
    160 H160       -2.6705   -4.5497   -9.1366 H         1 UNK         0.0000 
    161 H161       -1.0390    1.0528   -3.9750 H         1 UNK         0.0000 
    162 H162       -4.5949    1.1960   -5.2553 H         1 UNK         0.0000 
    163 H163       -4.2146    2.8846   -4.7892 H         1 UNK         0.0000 
    164 H164       -5.2843    2.4637   -2.6006 H         1 UNK         0.0000 
    165 H165       -5.8857   -0.6420   -1.2785 H         1 UNK         0.0000 
    166 H166       -6.7805    0.3782   -0.1531 H         1 UNK         0.0000 
    167 H167       -9.2206    0.9725   -3.9705 H         1 UNK         0.0000 
    168 H168       -8.6343    2.6742   -3.6943 H         1 UNK         0.0000 
    169 H169      -10.6739    2.2877   -2.7806 H         1 UNK         0.0000 
@<TRIPOS>BOND
     1    1    2 nc   
     2    1    6 nc   
     3    1   40 nc   
     4    1   42 nc   
     5    1   75 nc   
     6    1   77 nc   
     7    2    3 2    
     8    3    5 am   BACKBONE|DICT|INTERRES
     9    3    4 1    
    10    4   96 1    
    11    4   94 1    
    12    4   95 1    
    13    5    7 1    
    14    5    6 1    
    15    7   98 1    
    16    7    8 1    
    17    7   97 1    
    18    8    9 1    
    19    8  100 1    
    20    8   99 1    
    21    9  102 1    
    22    9   10 1    
    23    9  101 1    
    24   10   11 1    
    25   10   12 1    
    26   10   91 1    
    27   12  103 1    
    28   12   13 am   BACKBONE|DICT|INTERRES
    29   13   15 1    
    30   13   14 2    
    31   15   16 1    
    32   15   17 1    
    33   15   19 1    
    34   17   18 1    
    35   17  104 1    
    36   17  105 1    
    37   18  106 1    
    38   19   20 am   BACKBONE|DICT|INTERRES
    39   19  107 1    
    40   20   22 1    
    41   20   21 2    
    42   22   23 1    
    43   22   24 1    
    44   22   27 1    
    45   24  108 1    
    46   24   25 1    
    47   24   26 1    
    48   25  110 1    
    49   25  111 1    
    50   25  109 1    
    51   26  114 1    
    52   26  113 1    
    53   26  112 1    
    54   27  115 1    
    55   27   28 am   BACKBONE|DICT|INTERRES
    56   28   29 2    
    57   28   30 1    
    58   30  116 1    
    59   30   31 1    
    60   30  117 1    
    61   31  118 1    
    62   31   32 am   BACKBONE|DICT|INTERRES
    63   32   33 2    
    64   32   34 1    
    65   34   35 1    
    66   34   36 1    
    67   34   44 1    
    68   36  120 1    
    69   36   37 1    
    70   36  119 1    
    71   37  121 1    
    72   37   38 1    
    73   37  122 1    
    74   38  123 1    
    75   38   39 1    
    76   38  124 1    
    77   39   40 1    
    78   39   41 am   BACKBONE|DICT|INTERRES
    79   41   43 1    
    80   41   42 2    
    81   43  125 1    
    82   43  126 1    
    83   43  127 1    
    84   44   45 am   BACKBONE|DICT|INTERRES
    85   44  128 1    
    86   45   46 2    
    87   45   47 1    
    88   47   49 1    
    89   47   48 1    
    90   47   61 1    
    91   49  129 1    
    92   49   50 am   BACKBONE|DICT|INTERRES
    93   50   52 1    
    94   50   51 2    
    95   52  130 1    
    96   52   53 1    
    97   52  131 1    
    98   53   54 2    
    99   53  132 1    
   100   54   55 1    
   101   54  133 1    
   102   55  134 1    
   103   55  135 1    
   104   55   56 1    
   105   56  137 1    
   106   56   57 1    
   107   56  136 1    
   108   57  139 1    
   109   57   58 1    
   110   57  138 1    
   111   58  141 1    
   112   58   59 1    
   113   58  140 1    
   114   59   60 1    
   115   59  142 1    
   116   59  143 1    
   117   60  146 1    
   118   60  144 1    
   119   60  145 1    
   120   61   62 1    
   121   61  147 1    
   122   61  148 1    
   123   62   63 1    
   124   63   64 2    
   125   63   65 1    
   126   65  149 1    
   127   65  150 1    
   128   65   66 1    
   129   66   67 am   BACKBONE|DICT|INTERRES
   130   66  151 1    
   131   67   69 1    
   132   67   68 2    
   133   69   70 1    
   134   69   79 1    
   135   69   71 1    
   136   71  152 1    
   137   71   72 1    
   138   71  153 1    
   139   72  154 1    
   140   72   73 1    
   141   72  155 1    
   142   73   74 1    
   143   73  156 1    
   144   73  157 1    
   145   74   75 1    
   146   74   76 am   BACKBONE|DICT|INTERRES
   147   76   78 1    
   148   76   77 2    
   149   78  158 1    
   150   78  159 1    
   151   78  160 1    
   152   79  161 1    
   153   79   80 am   BACKBONE|DICT|INTERRES
   154   80   81 2    
   155   80   82 1    
   156   82   83 1    
   157   82  162 1    
   158   82  163 1    
   159   83  164 1    
   160   83   84 am   BACKBONE|DICT|INTERRES
   161   84   86 1    
   162   84   85 2    
   163   86   88 1    
   164   86   87 1    
   165   86   92 1    
   166   88   90 1    
   167   88   91 1    
   168   88   89 1    
   169   91  166 1    
   170   91  165 1    
   171   92   93 1    
   172   92  167 1    
   173   92  168 1    
   174   93  169 1    
@<TRIPOS>SUBSTRUCTURE
     1 UNK         1 GROUP             0       ****    0 ROOT    
