@<TRIPOS>MOLECULE
054_J_c1
140   144    1
SMALL
USER_CHARGES


@<TRIPOS>ATOM
      1 Fe1        -0.0540    1.2665   -2.4673 Fe        1 UNK         0.0000 
      2 O2         -0.2641    1.8246   -4.4882 O.co2     1 UNK         0.0000 
      3 C3          0.2507    1.0302   -5.2901 C.2       1 UNK         0.0000 
      4 C4         -0.1283    1.1975   -6.7580 C.3       1 UNK         0.0000 
      5 N5          1.0664    0.0454   -4.8335 N.am      1 UNK         0.0000 
      6 O6          1.3636   -0.1220   -3.5472 O.co2     1 UNK         0.0000 
      7 C7          1.7358   -0.9842   -5.6560 C.3       1 UNK         0.0000 
      8 C8          1.2276   -2.4155   -5.3551 C.3       1 UNK         0.0000 
      9 C9          2.1149   -3.5117   -5.9740 C.3       1 UNK         0.0000 
     10 C10         1.4229   -4.8921   -6.1333 C.3       1 UNK         0.0000 
     11 H11         0.5134   -4.6970   -6.6976 H         1 UNK         0.0000 
     12 C12         2.2480   -5.8167   -7.0576 C.2       1 UNK         0.0000 
     13 O13         3.4919   -6.0464   -6.5751 O.3       1 UNK         0.0000 
     14 O14         1.8407   -6.2598   -8.1064 O.2       1 UNK         0.0000 
     15 N15         0.9717   -5.5618   -4.8958 N.am      1 UNK         0.0000 
     16 C16         1.7295   -5.9171   -3.8462 C.2       1 UNK         0.0000 
     17 O17         2.8768   -5.5231   -3.6548 O.2       1 UNK         0.0000 
     18 C18         1.1070   -6.8570   -2.7946 C.3       1 UNK         0.0000 
     19 H19         0.1221   -7.1781   -3.1381 H         1 UNK         0.0000 
     20 C20         2.0161   -8.0989   -2.5843 C.3       1 UNK         0.0000 
     21 O21         1.3691   -9.1556   -1.8925 O.3       1 UNK         0.0000 
     22 N22         0.9581   -6.0474   -1.5903 N.am      1 UNK         0.0000 
     23 C23         0.0804   -6.2360   -0.5919 C.2       1 UNK         0.0000 
     24 O24        -0.5463   -7.2673   -0.3769 O.2       1 UNK         0.0000 
     25 C25        -0.2434   -4.9728    0.2154 C.3       1 UNK         0.0000 
     26 H26         0.6036   -4.3108    0.0286 H         1 UNK         0.0000 
     27 C27        -1.5052   -4.2867   -0.3935 C.3       1 UNK         0.0000 
     28 C28        -1.3506   -2.7664   -0.2997 C.3       1 UNK         0.0000 
     29 C29        -2.4671   -1.9213   -0.9542 C.3       1 UNK         0.0000 
     30 N30        -2.0687   -0.5346   -1.3140 N.am      1 UNK         0.0000 
     31 O31        -0.7687   -0.2567   -1.3068 O.co2     1 UNK         0.0000 
     32 C32        -2.8772    0.3709   -1.9182 C.2       1 UNK         0.0000 
     33 O33        -2.2618    1.3339   -2.4081 O.co2     1 UNK         0.0000 
     34 C34        -4.3832    0.1952   -2.0949 C.3       1 UNK         0.0000 
     35 N35        -0.1795   -5.1486    1.6774 N.am      1 UNK         0.0000 
     36 C36        -1.0343   -4.7043    2.6186 C.2       1 UNK         0.0000 
     37 O37        -2.1403   -4.2307    2.3864 O.2       1 UNK         0.0000 
     38 C38        -0.5443   -4.7561    4.0837 C.3       1 UNK         0.0000 
     39 H39         0.2892   -5.4568    4.1242 H         1 UNK         0.0000 
     40 C40        -1.6394   -5.3087    5.0259 C.3       1 UNK         0.0000 
     41 C41        -1.1870   -5.5597    6.4795 C.3       1 UNK         0.0000 
     42 C42        -2.2779   -6.2313    7.3252 C.2       1 UNK         0.0000 
     43 O43        -3.3722   -6.5248    6.8608 O.2       1 UNK         0.0000 
     44 N44        -2.0047   -6.5085    8.5932 N.am      1 UNK         0.0000 
     45 N45        -0.0318   -3.4478    4.5382 N.am      1 UNK         0.0000 
     46 C46        -0.7178   -2.2890    4.6445 C.2       1 UNK         0.0000 
     47 O47        -1.9246   -2.1705    4.4364 O.2       1 UNK         0.0000 
     48 C48         0.0887   -1.0290    5.0438 C.3       1 UNK         0.0000 
     49 H49         0.9925   -1.0787    4.4554 H         1 UNK         0.0000 
     50 C50         0.4596   -0.9915    6.5476 C.3       1 UNK         0.0000 
     51 O51        -0.6651   -1.0860    7.4100 O.3       1 UNK         0.0000 
     52 N52        -0.7168    0.1514    4.7320 N.am      1 UNK         0.0000 
     53 C53        -0.5311    1.2821    4.0332 C.2       1 UNK         0.0000 
     54 O54        -1.5157    1.9733    3.7667 O.2       1 UNK         0.0000 
     55 C55         0.8331    1.8373    3.5274 C.3       1 UNK         0.0000 
     56 H56         1.1128    2.5950    4.2616 H         1 UNK         0.0000 
     57 C57         2.0562    0.9047    3.3119 C.3       1 UNK         0.0000 
     58 O58         2.7517    0.6566    4.5247 O.3       1 UNK         0.0000 
     59 N59         0.5281    2.5642    2.2975 N.am      1 UNK         0.0000 
     60 C60         1.2955    3.5221    1.7610 C.2       1 UNK         0.0000 
     61 O61         2.4001    3.8122    2.2123 O.2       1 UNK         0.0000 
     62 C62         0.7516    4.3002    0.5386 C.3       1 UNK         0.0000 
     63 H63         1.5150    5.0339    0.2919 H         1 UNK         0.0000 
     64 C64         0.6467    3.3930   -0.6732 C.2       1 UNK         0.0000 
     65 O65        -0.3285    2.7436   -1.1334 O.co2     1 UNK         0.0000 
     66 C66         1.8352    2.9652   -1.4644 C.2       1 UNK         0.0000 
     67 O67         1.4297    2.0017   -2.1743 O.co2     1 UNK         0.0000 
     68 O68         2.7867    3.7546   -1.5673 O.co2     1 UNK         0.0000 
     69 N69        -0.5618    4.9477    0.7713 N.am      1 UNK         0.0000 
     70 C70        -0.8033    6.2602    0.9206 C.2       1 UNK         0.0000 
     71 O71        -1.9479    6.6468    1.1334 O.2       1 UNK         0.0000 
     72 C72         0.3646    7.2608    0.7927 C.3       1 UNK         0.0000 
     73 C73        -0.0191    8.7566    0.8705 C.3       1 UNK         0.0000 
     74 C74         1.1946    9.6832    0.6584 C.3       1 UNK         0.0000 
     75 C75         0.7807   11.1491    0.4492 C.3       1 UNK         0.0000 
     76 C76         1.9682   12.0829    0.1459 C.3       1 UNK         0.0000 
     77 C77         1.5453   13.4625   -0.4033 C.3       1 UNK         0.0000 
     78 C78         0.7250   14.3497    0.5547 C.3       1 UNK         0.0000 
     79 C79         1.5122   14.8216    1.7903 C.3       1 UNK         0.0000 
     80 C80         0.7216   15.8199    2.6462 C.3       1 UNK         0.0000 
     81 H81         0.2895    2.1329   -7.1239 H         1 UNK         0.0000 
     82 H82         0.1822    0.3892   -7.4109 H         1 UNK         0.0000 
     83 H83        -1.2123    1.2723   -6.8229 H         1 UNK         0.0000 
     84 H84         1.7037   -0.8151   -6.7282 H         1 UNK         0.0000 
     85 H85         2.8047   -0.9258   -5.4371 H         1 UNK         0.0000 
     86 H86         1.1582   -2.5913   -4.2779 H         1 UNK         0.0000 
     87 H87         0.2133   -2.4971   -5.7433 H         1 UNK         0.0000 
     88 H88         3.0396   -3.6090   -5.4032 H         1 UNK         0.0000 
     89 H89         2.4351   -3.1776   -6.9633 H         1 UNK         0.0000 
     90 H90         0.0261   -5.9061   -4.9357 H         1 UNK         0.0000 
     91 H91         2.9638   -7.8333   -2.1127 H         1 UNK         0.0000 
     92 H92         2.2796   -8.4992   -3.5648 H         1 UNK         0.0000 
     93 H93         2.0225   -9.6859   -1.4335 H         1 UNK         0.0000 
     94 H94         1.4603   -5.1726   -1.6583 H         1 UNK         0.0000 
     95 H95        -2.4407   -4.6416    0.0414 H         1 UNK         0.0000 
     96 H96        -1.5918   -4.5402   -1.4514 H         1 UNK         0.0000 
     97 H97        -0.4108   -2.5688   -0.8103 H         1 UNK         0.0000 
     98 H98        -1.2099   -2.4425    0.7308 H         1 UNK         0.0000 
     99 H99        -2.7725   -2.4302   -1.8705 H         1 UNK         0.0000 
    100 H100       -3.3578   -1.9311   -0.3215 H         1 UNK         0.0000 
    101 H101       -4.9194    0.9990   -1.5965 H         1 UNK         0.0000 
    102 H102       -4.7556   -0.7544   -1.7158 H         1 UNK         0.0000 
    103 H103       -4.5986    0.2466   -3.1586 H         1 UNK         0.0000 
    104 H104        0.6399   -5.6480    1.9817 H         1 UNK         0.0000 
    105 H105       -2.0071   -6.2469    4.6102 H         1 UNK         0.0000 
    106 H106       -2.5104   -4.6521    5.0289 H         1 UNK         0.0000 
    107 H107       -0.9097   -4.6151    6.9489 H         1 UNK         0.0000 
    108 H108       -0.3015   -6.1945    6.4844 H         1 UNK         0.0000 
    109 H109       -2.7433   -6.9411    9.1243 H         1 UNK         0.0000 
    110 H110       -1.1273   -6.2760    9.0249 H         1 UNK         0.0000 
    111 H111        0.9544   -3.4301    4.7325 H         1 UNK         0.0000 
    112 H112        1.1195   -1.8303    6.7738 H         1 UNK         0.0000 
    113 H113        1.0190   -0.0833    6.7757 H         1 UNK         0.0000 
    114 H114       -0.3898   -0.9446    8.3172 H         1 UNK         0.0000 
    115 H115       -1.6762   -0.0531    4.9739 H         1 UNK         0.0000 
    116 H116        2.7870    1.3586    2.6469 H         1 UNK         0.0000 
    117 H117        1.7737   -0.0155    2.8045 H         1 UNK         0.0000 
    118 H118        3.2725    1.4448    4.7233 H         1 UNK         0.0000 
    119 H119       -0.4391    2.4410    2.0294 H         1 UNK         0.0000 
    120 H120       -1.3592    4.3537    0.9308 H         1 UNK         0.0000 
    121 H121        1.1081    7.0428    1.5645 H         1 UNK         0.0000 
    122 H122        0.8234    7.0905   -0.1831 H         1 UNK         0.0000 
    123 H123       -0.4921    8.9824    1.8270 H         1 UNK         0.0000 
    124 H124       -0.7717    8.9691    0.1110 H         1 UNK         0.0000 
    125 H125        1.8784    9.6015    1.5048 H         1 UNK         0.0000 
    126 H126        1.7552    9.3455   -0.2143 H         1 UNK         0.0000 
    127 H127        0.0763   11.1935   -0.3834 H         1 UNK         0.0000 
    128 H128        0.2388   11.5058    1.3267 H         1 UNK         0.0000 
    129 H129        2.6113   11.6105   -0.5980 H         1 UNK         0.0000 
    130 H130        2.5945   12.2000    1.0314 H         1 UNK         0.0000 
    131 H131        2.4344   14.0118   -0.7128 H         1 UNK         0.0000 
    132 H132        0.9691   13.3156   -1.3170 H         1 UNK         0.0000 
    133 H133        0.3814   15.2247   -0.0002 H         1 UNK         0.0000 
    134 H134       -0.1848   13.8333    0.8654 H         1 UNK         0.0000 
    135 H135        1.7937   13.9637    2.4028 H         1 UNK         0.0000 
    136 H136        2.4470   15.2856    1.4713 H         1 UNK         0.0000 
    137 H137        0.4525   16.7071    2.0715 H         1 UNK         0.0000 
    138 H138       -0.1993   15.3754    3.0251 H         1 UNK         0.0000 
    139 H139        1.3106   16.1472    3.5029 H         1 UNK         0.0000 
    140 H140        3.9349   -6.5644   -7.2426 H         1 UNK         0.0000 
@<TRIPOS>BOND
     1    1    2 nc   
     2    1    6 nc   
     3    1   31 nc   
     4    1   33 nc   
     5    1   65 nc   
     6    1   67 nc   
     7    2    3 2    
     8    3    5 am   BACKBONE|DICT|INTERRES
     9    3    4 1    
    10    4   83 1    
    11    4   81 1    
    12    4   82 1    
    13    5    6 1    
    14    5    7 1    
    15    7   85 1    
    16    7    8 1    
    17    7   84 1    
    18    8   86 1    
    19    8    9 1    
    20    8   87 1    
    21    9   88 1    
    22    9   10 1    
    23    9   89 1    
    24   10   11 1    
    25   10   15 1    
    26   10   12 1    
    27   12   13 1    
    28   12   14 2    
    29   13  140 1    
    30   15   90 1    
    31   15   16 am   BACKBONE|DICT|INTERRES
    32   16   17 2    
    33   16   18 1    
    34   18   19 1    
    35   18   20 1    
    36   18   22 1    
    37   20   91 1    
    38   20   21 1    
    39   20   92 1    
    40   21   93 1    
    41   22   23 am   BACKBONE|DICT|INTERRES
    42   22   94 1    
    43   23   24 2    
    44   23   25 1    
    45   25   26 1    
    46   25   35 1    
    47   25   27 1    
    48   27   95 1    
    49   27   28 1    
    50   27   96 1    
    51   28   98 1    
    52   28   29 1    
    53   28   97 1    
    54   29  100 1    
    55   29   30 1    
    56   29   99 1    
    57   30   31 1    
    58   30   32 am   BACKBONE|DICT|INTERRES
    59   32   33 2    
    60   32   34 1    
    61   34  102 1    
    62   34  101 1    
    63   34  103 1    
    64   35  104 1    
    65   35   36 am   BACKBONE|DICT|INTERRES
    66   36   38 1    
    67   36   37 2    
    68   38   39 1    
    69   38   45 1    
    70   38   40 1    
    71   40   41 1    
    72   40  105 1    
    73   40  106 1    
    74   41  108 1    
    75   41  107 1    
    76   41   42 1    
    77   42   44 am   BACKBONE|DICT|INTERRES
    78   42   43 2    
    79   44  110 1    
    80   44  109 1    
    81   45  111 1    
    82   45   46 am   BACKBONE|DICT|INTERRES
    83   46   48 1    
    84   46   47 2    
    85   48   49 1    
    86   48   50 1    
    87   48   52 1    
    88   50  112 1    
    89   50  113 1    
    90   50   51 1    
    91   51  114 1    
    92   52  115 1    
    93   52   53 am   BACKBONE|DICT|INTERRES
    94   53   54 2    
    95   53   55 1    
    96   55   56 1    
    97   55   57 1    
    98   55   59 1    
    99   57   58 1    
   100   57  116 1    
   101   57  117 1    
   102   58  118 1    
   103   59   60 am   BACKBONE|DICT|INTERRES
   104   59  119 1    
   105   60   61 2    
   106   60   62 1    
   107   62   63 1    
   108   62   69 1    
   109   62   64 1    
   110   64   66 1    
   111   64   65 2    
   112   66   67 1    
   113   66   68 2    
   114   69  120 1    
   115   69   70 am   BACKBONE|DICT|INTERRES
   116   70   71 2    
   117   70   72 1    
   118   72   73 1    
   119   72  121 1    
   120   72  122 1    
   121   73  123 1    
   122   73   74 1    
   123   73  124 1    
   124   74  125 1    
   125   74   75 1    
   126   74  126 1    
   127   75  128 1    
   128   75   76 1    
   129   75  127 1    
   130   76  130 1    
   131   76   77 1    
   132   76  129 1    
   133   77   78 1    
   134   77  131 1    
   135   77  132 1    
   136   78  134 1    
   137   78   79 1    
   138   78  133 1    
   139   79  135 1    
   140   79   80 1    
   141   79  136 1    
   142   80  138 1    
   143   80  139 1    
   144   80  137 1    
@<TRIPOS>SUBSTRUCTURE
     1 UNK         1 GROUP             0       ****    0 ROOT    
