@<TRIPOS>MOLECULE
239_C_c1
100   108    1
SMALL
USER_CHARGES


@<TRIPOS>ATOM
      1 Fe1        -0.0272   -0.0359   -0.0088 Fe        1 UNK         0.0000 
      2 C2         -0.0840    4.1296   -2.2038 C.3       1 UNK         0.0000 
      3 C3          1.1715    3.7189   -1.3796 C.3       1 UNK         0.0000 
      4 C4          0.9486    3.2634    0.0902 C.3       1 UNK         0.0000 
      5 O5          0.0215    2.2130    0.0358 O.co2     1 UNK         0.0000 
      6 C6          0.3375    4.3327    1.0045 C.3       1 UNK         0.0000 
      7 C7          1.5596    5.1192    1.5178 C.3       1 UNK         0.0000 
      8 H8          1.7901    5.9380    0.8309 H         1 UNK         0.0000 
      9 C9          1.2615    5.8301    2.8854 C.2       1 UNK         0.0000 
     10 O10         1.9379    5.7122    3.9008 O.2       1 UNK         0.0000 
     11 N11         0.2550    6.6995    2.9282 N.am      1 UNK         0.0000 
     12 N12         2.6905    4.1905    1.4975 N.3       1 UNK         0.0000 
     13 C13         2.2428    2.9073    0.9212 C.3       1 UNK         0.0000 
     14 C14         3.4284    2.0579    0.3553 C.ar      1 UNK         0.0000 
     15 N15         4.6636    2.6816    0.3552 N.ar      1 UNK         0.0000 
     16 C16         5.7815    1.9312    0.1847 C.ar      1 UNK         0.0000 
     17 C17         5.7521    0.5666   -0.0788 C.ar      1 UNK         0.0000 
     18 C18         4.5034   -0.0446   -0.1789 C.ar      1 UNK         0.0000 
     19 C19         3.3319    0.6760    0.0417 C.ar      1 UNK         0.0000 
     20 O20         2.2474    0.0079   -0.0155 O.co2     1 UNK         0.0000 
     21 H21        -0.7632    3.2804   -2.3255 H         1 UNK         0.0000 
     22 H22        -0.6610    4.9357   -1.7507 H         1 UNK         0.0000 
     23 H23         0.1961    4.4434   -3.2086 H         1 UNK         0.0000 
     24 H24         1.6477    2.9008   -1.9244 H         1 UNK         0.0000 
     25 H25         1.8752    4.5510   -1.4015 H         1 UNK         0.0000 
     26 H26        -0.3979    4.9578    0.4922 H         1 UNK         0.0000 
     27 H27        -0.1851    3.8405    1.8301 H         1 UNK         0.0000 
     28 H28         0.1023    7.1701    3.8037 H         1 UNK         0.0000 
     29 H29        -0.4180    6.6945    2.1814 H         1 UNK         0.0000 
     30 H30         6.7227    2.4496    0.2745 H         1 UNK         0.0000 
     31 H31         6.6523   -0.0114   -0.1931 H         1 UNK         0.0000 
     32 H32         4.4209   -1.0984   -0.3977 H         1 UNK         0.0000 
     33 C33        -2.0299   -4.4941    0.0871 C.3       1 UNK         0.0000 
     34 C34        -1.2616   -3.8660    1.2832 C.3       1 UNK         0.0000 
     35 C35         0.1648   -3.3270    0.9890 C.3       1 UNK         0.0000 
     36 O36         0.0081   -2.2896    0.0543 O.co2     1 UNK         0.0000 
     37 C37         1.1041   -4.3585    0.3574 C.3       1 UNK         0.0000 
     38 C38         1.6087   -5.1539    1.5722 C.3       1 UNK         0.0000 
     39 H39         0.8954   -5.9411    1.8356 H         1 UNK         0.0000 
     40 C40         2.9243   -5.9404    1.2420 C.2       1 UNK         0.0000 
     41 O41         3.9686   -5.8637    1.8775 O.2       1 UNK         0.0000 
     42 N42         2.8852   -6.8223    0.2456 N.am      1 UNK         0.0000 
     43 N43         1.6581   -4.2032    2.6845 N.3       1 UNK         0.0000 
     44 C44         1.0298   -2.9365    2.2513 C.3       1 UNK         0.0000 
     45 C45         0.4820   -2.0924    3.4502 C.ar      1 UNK         0.0000 
     46 N46         0.5629   -2.6915    4.6949 N.ar      1 UNK         0.0000 
     47 C47         0.4325   -1.9170    5.8064 C.ar      1 UNK         0.0000 
     48 C48         0.1397   -0.5595    5.7619 C.ar      1 UNK         0.0000 
     49 C49        -0.0516    0.0173    4.5106 C.ar      1 UNK         0.0000 
     50 C50         0.1130   -0.7243    3.3446 C.ar      1 UNK         0.0000 
     51 O51        -0.0487   -0.0812    2.2581 O.co2     1 UNK         0.0000 
     52 H52        -2.1093   -3.7855   -0.7423 H         1 UNK         0.0000 
     53 H53        -1.5565   -5.3950   -0.3023 H         1 UNK         0.0000 
     54 H54        -3.0457   -4.7600    0.3783 H         1 UNK         0.0000 
     55 H55        -1.8670   -3.0470    1.6773 H         1 UNK         0.0000 
     56 H56        -1.2167   -4.6090    2.0786 H         1 UNK         0.0000 
     57 H57         0.6272   -4.9743   -0.4062 H         1 UNK         0.0000 
     58 H58         1.9284   -3.8365   -0.1374 H         1 UNK         0.0000 
     59 H59         3.7349   -7.3269    0.0550 H         1 UNK         0.0000 
     60 H60         2.1066   -6.7988   -0.3887 H         1 UNK         0.0000 
     61 H61         0.5789   -2.4071    6.7525 H         1 UNK         0.0000 
     62 H62         0.0674    0.0373    6.6528 H         1 UNK         0.0000 
     63 H63        -0.2987    1.0657    4.4176 H         1 UNK         0.0000 
     64 C64        -4.4252   -2.1102   -0.1509 C.3       1 UNK         0.0000 
     65 C65        -3.7972   -1.3052   -1.3225 C.3       1 UNK         0.0000 
     66 C66        -3.3199    0.1370   -1.0108 C.3       1 UNK         0.0000 
     67 O67        -2.2802    0.0021   -0.0727 O.co2     1 UNK         0.0000 
     68 C68        -4.3834    1.0242   -0.3556 C.3       1 UNK         0.0000 
     69 C69        -5.1987    1.5248   -1.5590 C.3       1 UNK         0.0000 
     70 H70        -5.9606    0.7887   -1.8344 H         1 UNK         0.0000 
     71 C71        -6.0255    2.8109   -1.2077 C.2       1 UNK         0.0000 
     72 O72        -5.9381    3.8852   -1.7913 O.2       1 UNK         0.0000 
     73 N73        -6.9458    2.7095   -0.2491 N.am      1 UNK         0.0000 
     74 N74        -4.2529    1.6277   -2.6721 N.3       1 UNK         0.0000 
     75 C75        -2.9603    1.0412   -2.2527 C.3       1 UNK         0.0000 
     76 C76        -2.0801    0.5732   -3.4610 C.ar      1 UNK         0.0000 
     77 N77        -2.6532    0.7425   -4.7063 N.ar      1 UNK         0.0000 
     78 C78        -1.8678    0.6805   -5.8136 C.ar      1 UNK         0.0000 
     79 C79        -0.5151    0.3717   -5.7710 C.ar      1 UNK         0.0000 
     80 C80         0.0415    0.0906   -4.5279 C.ar      1 UNK         0.0000 
     81 C81        -0.7140    0.1938   -3.3620 C.ar      1 UNK         0.0000 
     82 O82        -0.0833   -0.0322   -2.2799 O.co2     1 UNK         0.0000 
     83 H83        -3.7348   -2.1797    0.6947 H         1 UNK         0.0000 
     84 H84        -5.3509   -1.6743    0.2218 H         1 UNK         0.0000 
     85 H85        -4.6521   -3.1290   -0.4627 H         1 UNK         0.0000 
     86 H86        -2.9512   -1.8791   -1.7083 H         1 UNK         0.0000 
     87 H87        -4.5265   -1.2744   -2.1299 H         1 UNK         0.0000 
     88 H88        -4.9854    0.5094    0.3936 H         1 UNK         0.0000 
     89 H89        -3.8952    1.8573    0.1593 H         1 UNK         0.0000 
     90 H90        -7.5031    3.5255   -0.0593 H         1 UNK         0.0000 
     91 H91        -6.8828    1.9298    0.3816 H         1 UNK         0.0000 
     92 H92        -2.3446    0.8828   -6.7566 H         1 UNK         0.0000 
     93 H93         0.0933    0.3507   -6.6547 H         1 UNK         0.0000 
     94 H94         1.0841   -0.1806   -4.4386 H         1 UNK         0.0000 
     95 H95         3.3483    4.4661    0.7857 H         1 UNK         0.0000 
     96 H96         1.8902    2.3139    1.7665 H         1 UNK         0.0000 
     97 H97         0.9828   -4.4724    3.3790 H         1 UNK         0.0000 
     98 H98         1.8440   -2.3167    1.8670 H         1 UNK         0.0000 
     99 H99        -4.5052    0.9649   -3.3844 H         1 UNK         0.0000 
    100 H100       -2.3808    1.8701   -1.8432 H         1 UNK         0.0000 
@<TRIPOS>BOND
     1    1    5 nc   
     2    1   20 nc   
     3    1   36 nc   
     4    1   51 nc   
     5    1   67 nc   
     6    1   82 nc   
     7    2   22 1    
     8    2    3 1    
     9    2   21 1    
    10    2   23 1    
    11    3   25 1    
    12    3    4 1    
    13    3   24 1    
    14    4    5 1    
    15    4   13 1    
    16    4    6 1    
    17    6    7 1    
    18    6   27 1    
    19    6   26 1    
    20    7    8 1    
    21    7    9 1    
    22    7   12 1    
    23    9   11 am   BACKBONE|DICT|INTERRES
    24    9   10 2    
    25   11   28 1    
    26   11   29 1    
    27   12   13 1    
    28   12   95 1    
    29   13   14 1    
    30   13   96 1    
    31   14   15 ar   
    32   14   19 ar   
    33   15   16 ar   
    34   16   30 1    
    35   16   17 ar   
    36   17   18 ar   
    37   17   31 1    
    38   18   19 ar   
    39   18   32 1    
    40   19   20 1    
    41   33   54 1    
    42   33   34 1    
    43   33   52 1    
    44   33   53 1    
    45   34   55 1    
    46   34   56 1    
    47   34   35 1    
    48   35   36 1    
    49   35   44 1    
    50   35   37 1    
    51   37   38 1    
    52   37   57 1    
    53   37   58 1    
    54   38   39 1    
    55   38   43 1    
    56   38   40 1    
    57   40   41 2    
    58   40   42 am   BACKBONE|DICT|INTERRES
    59   42   59 1    
    60   42   60 1    
    61   43   44 1    
    62   43   97 1    
    63   44   45 1    
    64   44   98 1    
    65   45   46 ar   
    66   45   50 ar   
    67   46   47 ar   
    68   47   61 1    
    69   47   48 ar   
    70   48   62 1    
    71   48   49 ar   
    72   49   50 ar   
    73   49   63 1    
    74   50   51 1    
    75   64   84 1    
    76   64   83 1    
    77   64   65 1    
    78   64   85 1    
    79   65   66 1    
    80   65   86 1    
    81   65   87 1    
    82   66   68 1    
    83   66   67 1    
    84   66   75 1    
    85   68   89 1    
    86   68   88 1    
    87   68   69 1    
    88   69   70 1    
    89   69   71 1    
    90   69   74 1    
    91   71   73 am   BACKBONE|DICT|INTERRES
    92   71   72 2    
    93   73   90 1    
    94   73   91 1    
    95   74   75 1    
    96   74   99 1    
    97   75   76 1    
    98   75  100 1    
    99   76   81 ar   
   100   76   77 ar   
   101   77   78 ar   
   102   78   79 ar   
   103   78   92 1    
   104   79   80 ar   
   105   79   93 1    
   106   80   94 1    
   107   80   81 ar   
   108   81   82 1    
@<TRIPOS>SUBSTRUCTURE
     1 UNK         1 GROUP             0       ****    0 ROOT    
