@<TRIPOS>MOLECULE
199_c1
135   142    1
SMALL
USER_CHARGES


@<TRIPOS>ATOM
      1 C1          1.7722   -3.5768   12.9314 C.3       1 UNK         0.0000 
      2 C2          1.5841   -3.5795   11.4044 C.3       1 UNK         0.0000 
      3 C3          0.4995   -4.5643   10.9101 C.3       1 UNK         0.0000 
      4 C4          0.7586   -6.0556   11.2136 C.3       1 UNK         0.0000 
      5 C5          2.0625   -6.6116   10.6089 C.3       1 UNK         0.0000 
      6 C6          2.2340   -8.1176   10.8710 C.3       1 UNK         0.0000 
      7 C7          3.4802   -8.7035   10.1716 C.3       1 UNK         0.0000 
      8 C8          3.6465  -10.2026   10.4368 C.2       1 UNK         0.0000 
      9 O9          2.8641  -11.0164    9.9818 O.2       1 UNK         0.0000 
     10 N10         4.6508  -10.6980   11.1523 N.am      1 UNK         0.0000 
     11 C11         5.7745  -10.0677   11.8490 C.3       1 UNK         0.0000 
     12 H12         6.4175  -10.9248   12.0766 H         1 UNK         0.0000 
     13 C13         5.4704   -9.4228   13.2499 C.3       1 UNK         0.0000 
     14 H14         6.4239   -9.2380   13.7495 H         1 UNK         0.0000 
     15 O15         4.8542   -8.1448   13.1189 O.3       1 UNK         0.0000 
     16 C16         4.6341  -10.3611   14.1325 C.ar      1 UNK         0.0000 
     17 N17         5.1751  -11.4955   14.5666 N.2       1 UNK         0.0000 
     18 C18         4.2493  -12.1145   15.2661 C.ar      1 UNK         0.0000 
     19 N19         3.0745  -11.4141   15.3030 N.pl3     1 UNK         0.0000 
     20 H20         2.2115  -11.6912   15.7598 H         1 UNK         0.0000 
     21 C21         3.3118  -10.2779   14.5706 C.ar      1 UNK         0.0000 
     22 C22         6.6100   -9.2177   10.9046 C.2       1 UNK         0.0000 
     23 N23         7.1192   -9.8278    9.8266 N.pl3     1 UNK         0.0000 
     24 H24         6.8002  -10.7778    9.6534 H         1 UNK         0.0000 
     25 C25         8.0317   -9.2154    8.8633 C.3       1 UNK         0.0000 
     26 C26         8.8019   -8.0696    9.5746 C.3       1 UNK         0.0000 
     27 C27         7.9798   -7.1582   10.5370 C.3       1 UNK         0.0000 
     28 H28         8.6122   -6.9425   11.4040 H         1 UNK         0.0000 
     29 N29         6.8461   -7.9097   11.1284 N.pl3     1 UNK         0.0000 
     30 C30         7.6071   -5.7247   10.0249 C.2       1 UNK         0.0000 
     31 O31         8.0039   -4.7640   10.6657 O.2       1 UNK         0.0000 
     32 N32         6.8970   -5.4104    8.9268 N.am      1 UNK         0.0000 
     33 C33         6.3544   -6.2292    7.8564 C.3       1 UNK         0.0000 
     34 H34         6.1106   -7.1884    8.3159 H         1 UNK         0.0000 
     35 C35         7.3458   -6.5143    6.6928 C.3       1 UNK         0.0000 
     36 C36         7.8139   -5.3740    5.7470 C.3       1 UNK         0.0000 
     37 C37         9.0473   -4.5366    6.1773 C.3       1 UNK         0.0000 
     38 N38         8.6967   -3.4796    7.2372 N.4       1 UNK         0.0000 
     39 H39         7.9944   -2.8432    6.8775 H         1 UNK         0.0000 
     40 H40         8.3745   -3.9148    8.0932 H         1 UNK         0.0000 
     41 H41         9.5108   -2.9175    7.4610 H         1 UNK         0.0000 
     42 C42         5.0001   -5.6472    7.3899 C.2       1 UNK         0.0000 
     43 O43         4.0674   -6.4572    7.2503 O.co2     1 UNK         0.0000 
     44 N44         4.8975   -4.2932    7.2176 N.am      1 UNK         0.0000 
     45 C45         3.7322   -3.3713    7.0029 C.3       1 UNK         0.0000 
     46 H46         4.0297   -2.5423    7.6425 H         1 UNK         0.0000 
     47 C47         2.3658   -3.8303    7.6063 C.3       1 UNK         0.0000 
     48 O48         1.6743   -4.7146    6.7715 O.co2     1 UNK         0.0000 
     49 C49         3.6933   -2.6178    5.6203 C.2       1 UNK         0.0000 
     50 O50         4.7758   -2.1845    5.2266 O.2       1 UNK         0.0000 
     51 N51         2.4973   -2.4169    5.0073 N.am      1 UNK         0.0000 
     52 C52         2.1308   -1.5542    3.8687 C.3       1 UNK         0.0000 
     53 H53         2.7866   -0.6801    3.9143 H         1 UNK         0.0000 
     54 C54         0.6704   -1.0588    4.0265 C.3       1 UNK         0.0000 
     55 O55         0.5029   -0.2995    5.2072 O.3       1 UNK         0.0000 
     56 C56         2.3201   -2.1364    2.4382 C.2       1 UNK         0.0000 
     57 O57         2.9255   -1.4413    1.6319 O.2       1 UNK         0.0000 
     58 N58         1.8175   -3.3198    2.0170 N.am      1 UNK         0.0000 
     59 C59         1.1097   -4.3675    2.7689 C.3       1 UNK         0.0000 
     60 H60         0.6438   -3.9044    3.6441 H         1 UNK         0.0000 
     61 C61         2.0259   -5.5564    3.2318 C.3       1 UNK         0.0000 
     62 H62         2.1282   -6.2065    2.3513 H         1 UNK         0.0000 
     63 C63         3.5161   -5.2588    3.5680 C.2       1 UNK         0.0000 
     64 O64         4.2672   -4.7766    2.7070 O.co2     1 UNK         0.0000 
     65 O65         3.8666   -5.6179    4.7331 O.co2     1 UNK         0.0000 
     66 O66         1.2923   -6.1740    4.2848 O.co2     1 UNK         0.0000 
     67 C67        -0.0546   -5.0761    2.0238 C.2       1 UNK         0.0000 
     68 N68        -0.2135   -4.9312    0.7017 N.pl3     1 UNK         0.0000 
     69 H69         0.4295   -4.2938    0.2432 H         1 UNK         0.0000 
     70 C70        -1.0748   -5.8276   -0.0892 C.3       1 UNK         0.0000 
     71 C71        -1.0711   -7.2068    0.6196 C.3       1 UNK         0.0000 
     72 C72        -1.5010   -7.1243    2.1095 C.3       1 UNK         0.0000 
     73 H73        -2.5862   -7.0453    2.2374 H         1 UNK         0.0000 
     74 N74        -0.8865   -5.9180    2.7004 N.pl3     1 UNK         0.0000 
     75 C75        -1.0462   -8.3962    2.8935 C.2       1 UNK         0.0000 
     76 O76        -1.8711   -9.2950    3.0150 O.2       1 UNK         0.0000 
     77 N77         0.2025   -8.4651    3.4084 N.am      1 UNK         0.0000 
     78 C78         0.6648   -9.2638    4.5855 C.3       1 UNK         0.0000 
     79 H79         0.4259  -10.3097    4.3785 H         1 UNK         0.0000 
     80 C80         2.2714   -9.2790    4.6477 C.2       1 UNK         0.0000 
     81 O81         2.9116   -8.3334    5.2266 O.co2     1 UNK         0.0000 
     82 O82         2.8006  -10.2244    4.0341 O.co2     1 UNK         0.0000 
     83 C83        -0.1364   -8.8351    5.8915 C.3       1 UNK         0.0000 
     84 H84        -0.5755   -7.8603    5.7015 H         1 UNK         0.0000 
     85 O85        -1.2592   -9.6924    6.0955 O.3       1 UNK         0.0000 
     86 C86         0.5588   -8.5196    7.2516 C.2       1 UNK         0.0000 
     87 O87         0.1250   -9.1074    8.2674 O.co2     1 UNK         0.0000 
     88 O88         1.3802   -7.5587    7.2881 O.co2     1 UNK         0.0000 
     89 H89         2.5048   -2.8293   13.2385 H         1 UNK         0.0000 
     90 H90         2.1164   -4.5440   13.2979 H         1 UNK         0.0000 
     91 H91         0.8344   -3.3454   13.4375 H         1 UNK         0.0000 
     92 H92         2.5354   -3.7907   10.9191 H         1 UNK         0.0000 
     93 H93         1.3119   -2.5750   11.0757 H         1 UNK         0.0000 
     94 H94         0.3637   -4.4465    9.8329 H         1 UNK         0.0000 
     95 H95        -0.4630   -4.2807   11.3375 H         1 UNK         0.0000 
     96 H96        -0.0791   -6.6332   10.8120 H         1 UNK         0.0000 
     97 H97         0.7417   -6.2260   12.2905 H         1 UNK         0.0000 
     98 H98         2.9228   -6.0671   11.0008 H         1 UNK         0.0000 
     99 H99         2.0466   -6.4401    9.5317 H         1 UNK         0.0000 
    100 H100        1.3441   -8.6413   10.5111 H         1 UNK         0.0000 
    101 H101        2.2670   -8.2937   11.9487 H         1 UNK         0.0000 
    102 H102        4.3641   -8.1621   10.4776 H         1 UNK         0.0000 
    103 H103        3.3896   -8.5701    9.0927 H         1 UNK         0.0000 
    104 H104        4.4929  -11.6867   11.2847 H         1 UNK         0.0000 
    105 H105        4.4013   -7.9565   13.9575 H         1 UNK         0.0000 
    106 H106        4.3241  -13.0737   15.7713 H         1 UNK         0.0000 
    107 H107        2.5269   -9.5490   14.4160 H         1 UNK         0.0000 
    108 H108        7.4352   -8.8900    8.0116 H         1 UNK         0.0000 
    109 H109        8.7136   -9.9868    8.4972 H         1 UNK         0.0000 
    110 H110        9.3869   -7.4920    8.8609 H         1 UNK         0.0000 
    111 H111        9.5622   -8.5640   10.1857 H         1 UNK         0.0000 
    112 H112        6.3255   -7.5256   11.9238 H         1 UNK         0.0000 
    113 H113        6.4428   -4.5078    8.9905 H         1 UNK         0.0000 
    114 H114        6.8530   -7.2556    6.0603 H         1 UNK         0.0000 
    115 H115        8.2256   -7.0298    7.0560 H         1 UNK         0.0000 
    116 H116        6.9908   -4.7305    5.4311 H         1 UNK         0.0000 
    117 H117        8.1162   -5.8670    4.8163 H         1 UNK         0.0000 
    118 H118        9.4468   -3.9409    5.3516 H         1 UNK         0.0000 
    119 H119        9.8580   -5.1397    6.5947 H         1 UNK         0.0000 
    120 H120        5.7345   -3.7866    7.0172 H         1 UNK         0.0000 
    121 H121        1.7989   -2.9281    7.8493 H         1 UNK         0.0000 
    122 H122        2.5377   -4.2339    8.6075 H         1 UNK         0.0000 
    123 H123        1.7144   -2.8211    5.5150 H         1 UNK         0.0000 
    124 H124       -0.0509   -1.8752    4.0340 H         1 UNK         0.0000 
    125 H125        0.4007   -0.4255    3.1799 H         1 UNK         0.0000 
    126 H126        0.7628    0.6129    5.0402 H         1 UNK         0.0000 
    127 H127        2.2989   -3.6298    1.1859 H         1 UNK         0.0000 
    128 H128       -0.6983   -5.9001   -1.1120 H         1 UNK         0.0000 
    129 H129       -2.0808   -5.4002   -0.1078 H         1 UNK         0.0000 
    130 H130       -0.0655   -7.6302    0.5519 H         1 UNK         0.0000 
    131 H131       -1.7186   -7.9117    0.0967 H         1 UNK         0.0000 
    132 H132       -0.5455   -6.0173    3.6675 H         1 UNK         0.0000 
    133 H133        0.8611   -7.7144    3.1955 H         1 UNK         0.0000 
    134 H134       -1.3215   -9.7597    7.0649 H         1 UNK         0.0000 
    135 Fe135       2.4876   -6.4502    5.9604 Fe        1 UNK         0.0000 
@<TRIPOS>BOND
     1    1    2 1    
     2    1   89 1    
     3    1   90 1    
     4    1   91 1    
     5    2    3 1    
     6    2   92 1    
     7    2   93 1    
     8    3    4 1    
     9    3   94 1    
    10    3   95 1    
    11    4    5 1    
    12    4   96 1    
    13    4   97 1    
    14    5    6 1    
    15    5   98 1    
    16    5   99 1    
    17    6    7 1    
    18    6  100 1    
    19    6  101 1    
    20    7    8 1    
    21    7  102 1    
    22    7  103 1    
    23    8    9 2    
    24    8   10 am   BACKBONE|DICT|INTERRES
    25   10  104 1    
    26   10   11 1    
    27   11   13 1    
    28   11   22 1    
    29   11   12 1    
    30   13   14 1    
    31   13   15 1    
    32   13   16 1    
    33   15  105 1    
    34   16   17 ar   
    35   16   21 ar   
    36   17   18 ar   
    37   18   19 ar   
    38   18  106 1    
    39   19   20 1    
    40   19   21 ar   
    41   21  107 1    
    42   22   23 2    
    43   22   29 1    
    44   23   24 1    
    45   23   25 1    
    46   25   26 1    
    47   25  108 1    
    48   25  109 1    
    49   26   27 1    
    50   26  110 1    
    51   26  111 1    
    52   27   29 1    
    53   27   30 1    
    54   27   28 1    
    55   29  112 1    
    56   30   31 2    
    57   30   32 am   BACKBONE|DICT|INTERRES
    58   32  113 1    
    59   32   33 1    
    60   33   35 1    
    61   33   42 1    
    62   33   34 1    
    63   35   36 1    
    64   35  114 1    
    65   35  115 1    
    66   36   37 1    
    67   36  116 1    
    68   36  117 1    
    69   37   38 1    
    70   37  118 1    
    71   37  119 1    
    72   38   39 1    
    73   38   40 1    
    74   38   41 1    
    75   42   43 2    
    76   42   44 am   BACKBONE|DICT|INTERRES
    77   43  135 nc   
    78   44  120 1    
    79   44   45 1    
    80   45   47 1    
    81   45   49 1    
    82   45   46 1    
    83   47   48 1    
    84   47  121 1    
    85   47  122 1    
    86   48  135 nc   
    87   49   50 2    
    88   49   51 am   BACKBONE|DICT|INTERRES
    89   51  123 1    
    90   51   52 1    
    91   52   54 1    
    92   52   56 1    
    93   52   53 1    
    94   54   55 1    
    95   54  124 1    
    96   54  125 1    
    97   55  126 1    
    98   56   57 2    
    99   56   58 am   BACKBONE|DICT|INTERRES
   100   58  127 1    
   101   58   59 1    
   102   59   61 1    
   103   59   67 1    
   104   59   60 1    
   105   61   62 1    
   106   61   63 1    
   107   61   66 1    
   108   63   64 2    
   109   63   65 1    
   110   65  135 nc   
   111   66  135 nc   
   112   67   68 2    
   113   67   74 1    
   114   68   69 1    
   115   68   70 1    
   116   70   71 1    
   117   70  128 1    
   118   70  129 1    
   119   71   72 1    
   120   71  130 1    
   121   71  131 1    
   122   72   74 1    
   123   72   75 1    
   124   72   73 1    
   125   74  132 1    
   126   75   76 2    
   127   75   77 am   BACKBONE|DICT|INTERRES
   128   77   78 1    
   129   77  133 1    
   130   78   79 1    
   131   78   80 1    
   132   78   83 1    
   133   80   81 1    
   134   80   82 2    
   135   81  135 nc   
   136   83   84 1    
   137   83   85 1    
   138   83   86 1    
   139   85  134 1    
   140   86   87 2    
   141   86   88 1    
   142   88  135 nc   
@<TRIPOS>SUBSTRUCTURE
     1 UNK         1 GROUP             0       ****    0 ROOT    
