@<TRIPOS>MOLECULE
004_c2
91   96    1
SMALL
USER_CHARGES


@<TRIPOS>ATOM
      1 Fe1         0.0000    0.0000    0.0000 Fe        1 UNK         0.0000 
      2 O2         -1.9715    3.1536   -1.4950 O.3       1 UNK         0.0000 
      3 C3         -2.3502    4.3544   -0.9139 C.3       1 UNK         0.0000 
      4 H4         -2.0660    5.2093   -1.5796 H         1 UNK         0.0000 
      5 C5         -3.8787    4.3729   -0.8056 C.3       1 UNK         0.0000 
      6 C6         -1.6243    4.5047    0.4390 C.3       1 UNK         0.0000 
      7 H7         -1.9633    3.7288    1.1603 H         1 UNK         0.0000 
      8 C8         -1.9574    5.8680    1.0092 C.2       1 UNK         0.0000 
      9 O9         -2.5852    5.9700    2.1951 O.3       1 UNK         0.0000 
     10 O10        -1.6677    6.8846    0.3944 O.2       1 UNK         0.0000 
     11 N11        -0.1757    4.3897    0.2736 N.am      1 UNK         0.0000 
     12 C12         0.5323    3.2389    0.0278 C.2       1 UNK         0.0000 
     13 O13         0.0000    2.0800    0.0000 O.co2     1 UNK         0.0000 
     14 C14         2.0401    3.3262   -0.0372 C.ar      1 UNK         0.0000 
     15 C15         2.5730    3.7149    1.2049 C.ar      1 UNK         0.0000 
     16 C16         3.2467    2.7593    1.9803 C.ar      1 UNK         0.0000 
     17 C17         3.1719    1.4219    1.5691 C.ar      1 UNK         0.0000 
     18 C18         2.6456    1.1410    0.3011 C.ar      1 UNK         0.0000 
     19 O19         2.0796   -0.0396    0.0000 O.co2     1 UNK         0.0000 
     20 C20         2.4452    2.1577   -0.5997 C.ar      1 UNK         0.0000 
     21 O21         2.2477    1.9628   -1.9133 O.3       1 UNK         0.0000 
     22 H22        -1.3262    3.3958   -2.2078 H         1 UNK         0.0000 
     23 H23        -4.3194    4.2286   -1.8168 H         1 UNK         0.0000 
     24 H24        -4.2375    3.5541   -0.1466 H         1 UNK         0.0000 
     25 H25        -4.2383    5.3471   -0.4141 H         1 UNK         0.0000 
     26 H26         0.3792    5.2548    0.3712 H         1 UNK         0.0000 
     27 H27         3.6112    3.0099    2.9650 H         1 UNK         0.0000 
     28 H28         3.4274    0.6319    2.2556 H         1 UNK         0.0000 
     29 H29         2.6562    1.2068   -2.3643 H         1 UNK         0.0000 
     30 O30        -2.2392   -4.1129   -1.7711 O.3       1 UNK         0.0000 
     31 C31        -1.1998   -4.8340   -2.3756 C.3       1 UNK         0.0000 
     32 H32        -1.5227   -5.8903   -2.2813 H         1 UNK         0.0000 
     33 C33        -1.0247   -4.4816   -3.8788 C.3       1 UNK         0.0000 
     34 C34         0.1649   -4.5873   -1.6437 C.3       1 UNK         0.0000 
     35 H35         0.6698   -3.6716   -2.0208 H         1 UNK         0.0000 
     36 C36         1.0498   -5.7759   -1.9549 C.2       1 UNK         0.0000 
     37 O37         2.2014   -5.6180   -2.6295 O.2       1 UNK         0.0000 
     38 O38         0.6961   -6.9018   -1.6301 O.3       1 UNK         0.0000 
     39 N39         0.0236   -4.4405   -0.1939 N.am      1 UNK         0.0000 
     40 C40        -0.0314   -3.2544    0.5151 C.2       1 UNK         0.0000 
     41 O41         0.0000   -2.0800    0.0000 O.co2     1 UNK         0.0000 
     42 C42        -0.0283   -3.2785    2.0112 C.ar      1 UNK         0.0000 
     43 C43         1.1585   -3.7246    2.6112 C.ar      1 UNK         0.0000 
     44 C44         1.8974   -2.8024    3.3805 C.ar      1 UNK         0.0000 
     45 C45         1.5139   -1.4478    3.3273 C.ar      1 UNK         0.0000 
     46 C46         0.3022   -1.1424    2.6903 C.ar      1 UNK         0.0000 
     47 O47         0.0000    0.0158    2.0799 O.co2     1 UNK         0.0000 
     48 C48        -0.5768   -2.0944    2.3583 C.ar      1 UNK         0.0000 
     49 O49        -1.7574   -1.7373    1.8633 O.3       1 UNK         0.0000 
     50 H50        -2.9575   -3.9524   -2.4382 H         1 UNK         0.0000 
     51 H51        -1.9915   -4.5009   -4.4225 H         1 UNK         0.0000 
     52 H52        -0.5842   -3.4674   -4.0154 H         1 UNK         0.0000 
     53 H53        -0.3445   -5.2120   -4.3641 H         1 UNK         0.0000 
     54 H54        -0.0039   -5.3106    0.3608 H         1 UNK         0.0000 
     55 H55         2.8453   -3.0891    3.8130 H         1 UNK         0.0000 
     56 H56         2.1942   -0.6789    3.6606 H         1 UNK         0.0000 
     57 H57        -2.1336   -0.8913    2.1250 H         1 UNK         0.0000 
     58 O58        -4.0987   -2.2186    1.7941 O.3       1 UNK         0.0000 
     59 C59        -4.8200   -1.1761    2.3862 C.3       1 UNK         0.0000 
     60 H60        -5.8721   -1.5007    2.3250 H         1 UNK         0.0000 
     61 C61        -4.4385   -0.9936    3.8985 C.3       1 UNK         0.0000 
     62 C62        -4.5736    0.1755    1.6527 C.3       1 UNK         0.0000 
     63 H63        -3.6443    0.6542    2.0152 H         1 UNK         0.0000 
     64 C64        -5.7511    1.0788    1.9591 C.2       1 UNK         0.0000 
     65 O65        -5.5811    2.2353    2.6250 O.3       1 UNK         0.0000 
     66 O66        -6.8843    0.7255    1.6547 O.2       1 UNK         0.0000 
     67 N67        -4.4438    0.0140    0.2070 N.am      1 UNK         0.0000 
     68 C68        -3.2582   -0.0434   -0.5060 C.2       1 UNK         0.0000 
     69 O69        -2.0800    0.0000    0.0000 O.co2     1 UNK         0.0000 
     70 C70        -3.2711   -0.1131   -2.0016 C.ar      1 UNK         0.0000 
     71 C71        -3.7686    0.9890   -2.7135 C.ar      1 UNK         0.0000 
     72 C72        -2.8969    1.6318   -3.6172 C.ar      1 UNK         0.0000 
     73 C73        -1.5164    1.2882   -3.5461 C.ar      1 UNK         0.0000 
     74 C74        -1.1634    0.1863   -2.7491 C.ar      1 UNK         0.0000 
     75 O75         0.0000    0.0000   -2.0800 O.co2     1 UNK         0.0000 
     76 C76        -2.0922   -0.6719   -2.3391 C.ar      1 UNK         0.0000 
     77 O77        -1.6983   -1.7978   -1.7683 O.3       1 UNK         0.0000 
     78 H78        -3.9422   -2.9402    2.4588 H         1 UNK         0.0000 
     79 H79        -4.4504   -1.9579    4.4489 H         1 UNK         0.0000 
     80 H80        -3.4205   -0.5562    4.0192 H         1 UNK         0.0000 
     81 H81        -5.1579   -0.3090    4.3912 H         1 UNK         0.0000 
     82 H82        -5.3120   -0.0460   -0.3418 H         1 UNK         0.0000 
     83 H83        -0.8692   -2.1787   -2.0757 H         1 UNK         0.0000 
     84 H84        -2.7195    6.8964    2.4080 H         1 UNK         0.0000 
     85 H85         1.3641   -7.5372   -1.8978 H         1 UNK         0.0000 
     86 H86        -6.4291    2.6732    2.7283 H         1 UNK         0.0000 
     87 H87         2.4599    4.7333    1.5461 H         1 UNK         0.0000 
     88 H88         1.4805   -4.7467    2.4768 H         1 UNK         0.0000 
     89 H89        -4.7861    1.3167   -2.5595 H         1 UNK         0.0000 
     90 H90        -0.7869    1.8673   -4.0928 H         1 UNK         0.0000 
     91 H91        -3.2854    2.3505   -4.3235 H         1 UNK         0.0000 
@<TRIPOS>BOND
     1    1   13 nc   
     2    1   19 nc   
     3    1   41 nc   
     4    1   47 nc   
     5    1   69 nc   
     6    1   75 nc   
     7    2    3 1    
     8    2   22 1    
     9    3    4 1    
    10    3    5 1    
    11    3    6 1    
    12    5   25 1    
    13    5   24 1    
    14    5   23 1    
    15    6    8 1    
    16    6    7 1    
    17    6   11 1    
    18    8    9 1    
    19    8   10 2    
    20    9   84 1    
    21   11   26 1    
    22   11   12 am   BACKBONE|DICT|INTERRES
    23   12   13 2    
    24   12   14 1    
    25   14   15 ar   
    26   14   20 ar   
    27   15   16 ar   
    28   15   87 1    
    29   16   27 1    
    30   16   17 ar   
    31   17   28 1    
    32   17   18 ar   
    33   18   19 1    
    34   18   20 ar   
    35   20   21 1    
    36   21   29 1    
    37   30   31 1    
    38   30   50 1    
    39   31   32 1    
    40   31   34 1    
    41   31   33 1    
    42   33   51 1    
    43   33   52 1    
    44   33   53 1    
    45   34   35 1    
    46   34   39 1    
    47   34   36 1    
    48   36   38 1    
    49   36   37 2    
    50   38   85 1    
    51   39   54 1    
    52   39   40 am   BACKBONE|DICT|INTERRES
    53   40   41 2    
    54   40   42 1    
    55   42   48 ar   
    56   42   43 ar   
    57   43   44 ar   
    58   43   88 1    
    59   44   55 1    
    60   44   45 ar   
    61   45   56 1    
    62   45   46 ar   
    63   46   47 1    
    64   46   48 ar   
    65   48   49 1    
    66   49   57 1    
    67   58   59 1    
    68   58   78 1    
    69   59   60 1    
    70   59   61 1    
    71   59   62 1    
    72   61   80 1    
    73   61   81 1    
    74   61   79 1    
    75   62   64 1    
    76   62   63 1    
    77   62   67 1    
    78   64   65 1    
    79   64   66 2    
    80   65   86 1    
    81   67   68 am   BACKBONE|DICT|INTERRES
    82   67   82 1    
    83   68   69 2    
    84   68   70 1    
    85   70   71 ar   
    86   70   76 ar   
    87   71   72 ar   
    88   71   89 1    
    89   72   73 ar   
    90   72   91 1    
    91   73   74 ar   
    92   73   90 1    
    93   74   76 ar   
    94   74   75 1    
    95   76   77 1    
    96   77   83 1    
@<TRIPOS>SUBSTRUCTURE
     1 UNK         1 GROUP             0       ****    0 ROOT    
