@<TRIPOS>MOLECULE
049_c1
97   102    1
SMALL
USER_CHARGES


@<TRIPOS>ATOM
      1 O1         -2.5565    1.2271   -7.9084 O.co2     1 UNK         0.0000 
      2 C2         -3.7649    1.0221   -7.7995 C.2       1 UNK         0.0000 
      3 C3         -4.3678    0.5752   -6.4777 C.3       1 UNK         0.0000 
      4 N4         -4.5175    1.1990   -8.9075 N.am      1 UNK         0.0000 
      5 O5         -4.0673    2.0026   -9.9005 O.co2     1 UNK         0.0000 
      6 C6         -5.4625    0.1420   -9.3946 C.3       1 UNK         0.0000 
      7 C7         -5.3893   -1.3774   -8.9366 C.3       1 UNK         0.0000 
      8 C8         -4.1052   -2.2828   -8.7443 C.3       1 UNK         0.0000 
      9 C9         -2.9650   -2.5078   -9.8072 C.3       1 UNK         0.0000 
     10 H10        -2.3177   -3.3167   -9.4552 H         1 UNK         0.0000 
     11 C11        -2.1765   -1.2107   -9.8837 C.2       1 UNK         0.0000 
     12 O12        -2.8317   -0.2775  -10.2786 O.co2     1 UNK         0.0000 
     13 N13        -3.4076   -2.7549  -11.1891 N.am      1 UNK         0.0000 
     14 C14        -2.5978   -3.4257  -12.0394 C.2       1 UNK         0.0000 
     15 O15        -2.1007   -4.5040  -11.7231 O.2       1 UNK         0.0000 
     16 C16        -2.0917   -2.7260  -13.3376 C.3       1 UNK         0.0000 
     17 H17        -2.3175   -3.3311  -14.2186 H         1 UNK         0.0000 
     18 C18        -2.6975   -1.2960  -13.4875 C.3       1 UNK         0.0000 
     19 C19        -1.9706   -0.1859  -14.2690 C.3       1 UNK         0.0000 
     20 C20        -2.5855    1.2295  -14.0543 C.3       1 UNK         0.0000 
     21 N21        -2.8606    1.5993  -12.6538 N.3       1 UNK         0.0000 
     22 O22        -1.6374    1.5946  -11.9554 O.co2     1 UNK         0.0000 
     23 N23        -0.6486   -2.7242  -13.1263 N.am      1 UNK         0.0000 
     24 C24         0.3734   -2.4302  -13.9367 C.2       1 UNK         0.0000 
     25 O25         0.2436   -2.1863  -15.1369 O.2       1 UNK         0.0000 
     26 C26         1.7829   -2.3548  -13.2938 C.3       1 UNK         0.0000 
     27 H27         2.3702   -3.1288  -13.7856 H         1 UNK         0.0000 
     28 C28         1.7824   -2.6408  -11.7614 C.3       1 UNK         0.0000 
     29 C29         1.1077   -1.5119  -10.9440 C.3       1 UNK         0.0000 
     30 C30         0.1871   -1.9332   -9.7646 C.3       1 UNK         0.0000 
     31 N31        -0.8877   -0.9520   -9.5533 N.am      1 UNK         0.0000 
     32 O32        -0.4400    0.3147   -9.4622 O.co2     1 UNK         0.0000 
     33 N33         2.3869   -1.0568  -13.6074 N.am      1 UNK         0.0000 
     34 C34         3.6815   -0.7540  -13.4157 C.2       1 UNK         0.0000 
     35 O35         4.5021   -1.5871  -13.0273 O.2       1 UNK         0.0000 
     36 C36         4.1301    0.6913  -13.7326 C.3       1 UNK         0.0000 
     37 H37         3.9364    0.8482  -14.7950 H         1 UNK         0.0000 
     38 C38         5.6483    0.9743  -13.5241 C.3       1 UNK         0.0000 
     39 O39         6.4896    0.1534  -14.3142 O.3       1 UNK         0.0000 
     40 N40         3.3606    1.7126  -13.0109 N.am      1 UNK         0.0000 
     41 C41         3.4041    1.9209  -11.6764 C.2       1 UNK         0.0000 
     42 O42         3.9693    1.1423  -10.9109 O.2       1 UNK         0.0000 
     43 C43         2.8332    3.2616  -11.1627 C.3       1 UNK         0.0000 
     44 H44         2.3970    3.7935  -12.0148 H         1 UNK         0.0000 
     45 C45         3.9315    4.1878  -10.5623 C.3       1 UNK         0.0000 
     46 O46         4.9071    4.6291  -11.4994 O.3       1 UNK         0.0000 
     47 N47         1.7392    3.1203  -10.2000 N.am      1 UNK         0.0000 
     48 C48         1.8459    2.7177   -8.9152 C.2       1 UNK         0.0000 
     49 O49         2.8809    2.2194   -8.4595 O.2       1 UNK         0.0000 
     50 C50         0.6709    2.9277   -7.9178 C.3       1 UNK         0.0000 
     51 H51         0.3407    1.9169   -7.6802 H         1 UNK         0.0000 
     52 C52        -0.6183    3.7082   -8.3944 C.3       1 UNK         0.0000 
     53 O53        -1.2588    3.3308   -9.5838 O.co2     1 UNK         0.0000 
     54 N54         1.1970    3.4516   -6.6428 N.am      1 UNK         0.0000 
     55 C55         1.8973    4.5850   -6.4360 C.2       1 UNK         0.0000 
     56 O56         2.2051    5.3716   -7.3279 O.2       1 UNK         0.0000 
     57 C57         2.2951    4.8761   -4.9981 C.3       1 UNK         0.0000 
     58 H58        -4.1268    1.3102   -5.7094 H         1 UNK         0.0000 
     59 H59        -3.9622   -0.3820   -6.1604 H         1 UNK         0.0000 
     60 H60        -5.4531    0.5021   -6.5405 H         1 UNK         0.0000 
     61 H61        -6.4695    0.5275   -9.1956 H         1 UNK         0.0000 
     62 H62        -5.3992    0.1073  -10.4923 H         1 UNK         0.0000 
     63 H63        -6.0731   -1.9159   -9.5962 H         1 UNK         0.0000 
     64 H64        -5.9074   -1.4130   -7.9796 H         1 UNK         0.0000 
     65 H65        -4.4821   -3.2827   -8.5122 H         1 UNK         0.0000 
     66 H66        -3.6169   -1.9644   -7.8247 H         1 UNK         0.0000 
     67 H67        -3.8186   -1.9106  -11.5746 H         1 UNK         0.0000 
     68 H68        -3.7318   -1.3553  -13.8209 H         1 UNK         0.0000 
     69 H69        -2.7310   -0.8588  -12.5093 H         1 UNK         0.0000 
     70 H70        -0.9319   -0.1085  -13.9362 H         1 UNK         0.0000 
     71 H71        -1.9529   -0.4142  -15.3370 H         1 UNK         0.0000 
     72 H72        -3.5367    1.2853  -14.5936 H         1 UNK         0.0000 
     73 H73        -1.9281    1.9792  -14.4997 H         1 UNK         0.0000 
     74 H74        -3.1793    2.5691  -12.6161 H         1 UNK         0.0000 
     75 H75        -0.4091   -2.9769  -12.1794 H         1 UNK         0.0000 
     76 H76         2.8019   -2.7723  -11.3921 H         1 UNK         0.0000 
     77 H77         1.3053   -3.6043  -11.5790 H         1 UNK         0.0000 
     78 H78         0.5142   -0.9042  -11.6230 H         1 UNK         0.0000 
     79 H79         1.8586   -0.8113  -10.5759 H         1 UNK         0.0000 
     80 H80         0.7645   -2.0639   -8.8453 H         1 UNK         0.0000 
     81 H81        -0.2330   -2.9170   -9.9687 H         1 UNK         0.0000 
     82 H82         1.7518   -0.3503  -13.9616 H         1 UNK         0.0000 
     83 H83         5.9315    0.8397  -12.4740 H         1 UNK         0.0000 
     84 H84         5.8725    2.0178  -13.7708 H         1 UNK         0.0000 
     85 H85         6.5736   -0.6843  -13.8418 H         1 UNK         0.0000 
     86 H86         2.8956    2.4089  -13.5752 H         1 UNK         0.0000 
     87 H87         4.4577    3.6944   -9.7388 H         1 UNK         0.0000 
     88 H88         3.4548    5.0726  -10.1264 H         1 UNK         0.0000 
     89 H89         5.6455    4.9727  -10.9870 H         1 UNK         0.0000 
     90 H90         0.8244    3.4752  -10.4767 H         1 UNK         0.0000 
     91 H91        -0.3401    4.7655   -8.4312 H         1 UNK         0.0000 
     92 H92        -1.3209    3.6706   -7.5584 H         1 UNK         0.0000 
     93 H93         1.1120    2.8145   -5.8648 H         1 UNK         0.0000 
     94 H94         2.0620    4.0178   -4.3611 H         1 UNK         0.0000 
     95 H95         1.7346    5.7386   -4.6312 H         1 UNK         0.0000 
     96 H96         3.3614    5.1030   -4.9046 H         1 UNK         0.0000 
     97 Fe97       -2.1031    1.4514   -9.9008 Fe        1 UNK         0.0000 
@<TRIPOS>BOND
     1    1    2 2    
     2    1   97 nc   
     3    2    3 1    
     4    2    4 am   BACKBONE|DICT|INTERRES
     5    3   58 1    
     6    3   59 1    
     7    3   60 1    
     8    4    5 1    
     9    4    6 1    
    10    5   97 nc   
    11    6    7 1    
    12    6   61 1    
    13    6   62 1    
    14    7    8 1    
    15    7   63 1    
    16    7   64 1    
    17    8    9 1    
    18    8   65 1    
    19    8   66 1    
    20    9   10 1    
    21    9   11 1    
    22    9   13 1    
    23   11   12 2    
    24   11   31 am   BACKBONE|DICT|INTERRES
    25   12   97 nc   
    26   13   14 am   BACKBONE|DICT|INTERRES
    27   13   67 1    
    28   14   15 2    
    29   14   16 1    
    30   16   23 1    
    31   16   18 1    
    32   16   17 1    
    33   18   19 1    
    34   18   68 1    
    35   18   69 1    
    36   19   20 1    
    37   19   70 1    
    38   19   71 1    
    39   20   21 1    
    40   20   72 1    
    41   20   73 1    
    42   21   22 1    
    43   21   74 1    
    44   22   97 nc   
    45   23   24 am   BACKBONE|DICT|INTERRES
    46   23   75 1    
    47   24   25 2    
    48   24   26 1    
    49   26   28 1    
    50   26   33 1    
    51   26   27 1    
    52   28   29 1    
    53   28   76 1    
    54   28   77 1    
    55   29   30 1    
    56   29   78 1    
    57   29   79 1    
    58   30   31 1    
    59   30   80 1    
    60   30   81 1    
    61   31   32 1    
    62   32   97 nc   
    63   33   34 am   BACKBONE|DICT|INTERRES
    64   33   82 1    
    65   34   35 2    
    66   34   36 1    
    67   36   38 1    
    68   36   40 1    
    69   36   37 1    
    70   38   39 1    
    71   38   83 1    
    72   38   84 1    
    73   39   85 1    
    74   40   41 am   BACKBONE|DICT|INTERRES
    75   40   86 1    
    76   41   42 2    
    77   41   43 1    
    78   43   45 1    
    79   43   47 1    
    80   43   44 1    
    81   45   46 1    
    82   45   87 1    
    83   45   88 1    
    84   46   89 1    
    85   47   48 am   BACKBONE|DICT|INTERRES
    86   47   90 1    
    87   48   49 2    
    88   48   50 1    
    89   50   52 1    
    90   50   54 1    
    91   50   51 1    
    92   52   53 1    
    93   52   91 1    
    94   52   92 1    
    95   53   97 nc   
    96   54   55 am   BACKBONE|DICT|INTERRES
    97   54   93 1    
    98   55   56 2    
    99   55   57 1    
   100   57   94 1    
   101   57   95 1    
   102   57   96 1    
@<TRIPOS>SUBSTRUCTURE
     1 UNK         1 GROUP             0       ****    0 ROOT    
