@<TRIPOS>MOLECULE
002_c2
70   75    1
SMALL
USER_CHARGES


@<TRIPOS>ATOM
      1 Fe1         0.0000    0.0000    0.0000 Fe        1 UNK         0.0000 
      2 C2          3.3553    3.6484    0.1237 C.ar      1 UNK         0.0000 
      3 C3          2.9665    4.9837    0.1904 C.ar      1 UNK         0.0000 
      4 C4          1.6317    5.3284    0.1942 C.ar      1 UNK         0.0000 
      5 C5          0.6610    4.3377    0.1320 C.ar      1 UNK         0.0000 
      6 O6         -0.6435    4.6933    0.1358 O.3       1 UNK         0.0000 
      7 C7          1.0242    2.9695    0.0633 C.ar      1 UNK         0.0000 
      8 O8          0.0000    2.0800    0.0000 O.co2     1 UNK         0.0000 
      9 C9          2.4271    2.5713    0.0572 C.ar      1 UNK         0.0000 
     10 C10         2.9068    1.0882   -0.0146 C.2       1 UNK         0.0000 
     11 O11         2.0711    0.1923    0.0000 O.co2     1 UNK         0.0000 
     12 N12         4.2031    0.6318   -0.1009 N.am      1 UNK         0.0000 
     13 C13         5.4410    1.3843   -0.1453 C.3       1 UNK         0.0000 
     14 C14         6.6265    0.4658   -0.2683 C.2       1 UNK         0.0000 
     15 O15         6.8735   -0.4475    0.6903 O.3       1 UNK         0.0000 
     16 O16         7.3734    0.5483   -1.2302 O.2       1 UNK         0.0000 
     17 H17         4.4072    3.5399    0.1340 H         1 UNK         0.0000 
     18 H18         3.7159    5.7636    0.2406 H         1 UNK         0.0000 
     19 H19         1.3492    6.3727    0.2468 H         1 UNK         0.0000 
     20 H20        -0.9341    5.6157    0.1814 H         1 UNK         0.0000 
     21 H21         4.3083   -0.3962   -0.1507 H         1 UNK         0.0000 
     22 H22         5.5762    1.9416    0.8050 H         1 UNK         0.0000 
     23 H23         5.4323    2.0566   -1.0314 H         1 UNK         0.0000 
     24 C24         0.0453   -3.5856    3.3894 C.ar      1 UNK         0.0000 
     25 C25         0.0948   -4.9279    3.0244 C.ar      1 UNK         0.0000 
     26 C26         0.1129   -5.2960    1.6970 C.ar      1 UNK         0.0000 
     27 C27         0.0822   -4.3220    0.7087 C.ar      1 UNK         0.0000 
     28 O28         0.1002   -4.7023   -0.5884 O.3       1 UNK         0.0000 
     29 C29         0.0319   -2.9461    1.0463 C.ar      1 UNK         0.0000 
     30 O30         0.0000   -2.0800    0.0000 O.co2     1 UNK         0.0000 
     31 C31         0.0110   -2.5214    2.4450 C.ar      1 UNK         0.0000 
     32 C32        -0.0429   -1.0290    2.9138 C.2       1 UNK         0.0000 
     33 O33         0.0000   -0.1356    2.0756 O.co2     1 UNK         0.0000 
     34 N34        -0.1429   -0.5615    4.2058 N.am      1 UNK         0.0000 
     35 C35        -0.2203   -1.3004    5.4506 C.3       1 UNK         0.0000 
     36 C36        -0.3475   -0.3684    6.6248 C.2       1 UNK         0.0000 
     37 O37         0.6219    0.5317    6.8789 O.2       1 UNK         0.0000 
     38 O38        -1.3224   -0.4279    7.3569 O.3       1 UNK         0.0000 
     39 H39         0.0418   -3.4629    4.4391 H         1 UNK         0.0000 
     40 H40         0.1201   -5.6956    3.7880 H         1 UNK         0.0000 
     41 H41         0.1513   -6.3461    1.4340 H         1 UNK         0.0000 
     42 H42         0.1345   -5.6304   -0.8617 H         1 UNK         0.0000 
     43 H43        -0.1776    0.4681    4.3023 H         1 UNK         0.0000 
     44 H44         0.7189   -1.8709    5.6078 H         1 UNK         0.0000 
     45 H45        -1.1171   -1.9580    5.4341 H         1 UNK         0.0000 
     46 C46        -3.5263    0.2069   -3.4135 C.ar      1 UNK         0.0000 
     47 C47        -4.8711    0.2914   -3.0663 C.ar      1 UNK         0.0000 
     48 C48        -5.2589    0.2795   -1.7451 C.ar      1 UNK         0.0000 
     49 C49        -4.3023    0.1830   -0.7447 C.ar      1 UNK         0.0000 
     50 O50        -4.7031    0.1725    0.5464 O.3       1 UNK         0.0000 
     51 C51        -2.9232    0.0954   -1.0625 C.ar      1 UNK         0.0000 
     52 O52        -2.0800    0.0000    0.0000 O.co2     1 UNK         0.0000 
     53 C53        -2.4763    0.1048   -2.4577 C.ar      1 UNK         0.0000 
     54 C54        -0.9801    0.0147   -2.9198 C.2       1 UNK         0.0000 
     55 O55        -0.0887    0.0000   -2.0781 O.co2     1 UNK         0.0000 
     56 N56        -0.5070   -0.0596   -4.2121 N.am      1 UNK         0.0000 
     57 C57        -1.2362   -0.0727   -5.4653 C.3       1 UNK         0.0000 
     58 C58        -0.2976   -0.1954   -6.6351 C.2       1 UNK         0.0000 
     59 O59         0.6369    0.7502   -6.8514 O.3       1 UNK         0.0000 
     60 O60        -0.3831   -1.1448   -7.3976 O.2       1 UNK         0.0000 
     61 H61        -3.3908    0.2336   -4.4606 H         1 UNK         0.0000 
     62 H62        -5.6259    0.3681   -3.8396 H         1 UNK         0.0000 
     63 H63        -6.3111    0.3461   -1.4964 H         1 UNK         0.0000 
     64 H64        -5.6338    0.2303    0.8063 H         1 UNK         0.0000 
     65 H65         0.5216   -0.1261   -4.3029 H         1 UNK         0.0000 
     66 H66        -1.7723    0.8902   -5.5987 H         1 UNK         0.0000 
     67 H67        -1.9237   -0.9468   -5.4830 H         1 UNK         0.0000 
     68 H68         7.6598   -0.9482    0.4609 H         1 UNK         0.0000 
     69 H69        -1.2437    0.2320    8.0497 H         1 UNK         0.0000 
     70 H70         1.1483    0.5228   -7.6314 H         1 UNK         0.0000 
@<TRIPOS>BOND
     1    1    8 nc   
     2    1   11 nc   
     3    1   30 nc   
     4    1   33 nc   
     5    1   52 nc   
     6    1   55 nc   
     7    2   17 1    
     8    2    3 ar   
     9    2    9 ar   
    10    3    4 ar   
    11    3   18 1    
    12    4   19 1    
    13    4    5 ar   
    14    5    6 1    
    15    5    7 ar   
    16    6   20 1    
    17    7    8 1    
    18    7    9 ar   
    19    9   10 1    
    20   10   11 2    
    21   10   12 am   BACKBONE|DICT|INTERRES
    22   12   13 1    
    23   12   21 1    
    24   13   22 1    
    25   13   14 1    
    26   13   23 1    
    27   14   15 1    
    28   14   16 2    
    29   15   68 1    
    30   24   39 1    
    31   24   25 ar   
    32   24   31 ar   
    33   25   40 1    
    34   25   26 ar   
    35   26   27 ar   
    36   26   41 1    
    37   27   29 ar   
    38   27   28 1    
    39   28   42 1    
    40   29   31 ar   
    41   29   30 1    
    42   31   32 1    
    43   32   33 2    
    44   32   34 am   BACKBONE|DICT|INTERRES
    45   34   43 1    
    46   34   35 1    
    47   35   44 1    
    48   35   36 1    
    49   35   45 1    
    50   36   37 2    
    51   36   38 1    
    52   38   69 1    
    53   46   47 ar   
    54   46   53 ar   
    55   46   61 1    
    56   47   48 ar   
    57   47   62 1    
    58   48   63 1    
    59   48   49 ar   
    60   49   50 1    
    61   49   51 ar   
    62   50   64 1    
    63   51   52 1    
    64   51   53 ar   
    65   53   54 1    
    66   54   55 2    
    67   54   56 am   BACKBONE|DICT|INTERRES
    68   56   57 1    
    69   56   65 1    
    70   57   58 1    
    71   57   66 1    
    72   57   67 1    
    73   58   59 1    
    74   58   60 2    
    75   59   70 1    
@<TRIPOS>SUBSTRUCTURE
     1 UNK         1 GROUP             0       ****    0 ROOT    
