@<TRIPOS>MOLECULE
273_c1
112   118    1
SMALL
USER_CHARGES


@<TRIPOS>ATOM
      1 N1        -11.0975    5.1090   13.8810 N.ar      1 UNK         0.0000 
      2 C2        -10.8266    4.4716   15.0445 C.ar      1 UNK         0.0000 
      3 C3        -11.6041    3.4290   15.5434 C.ar      1 UNK         0.0000 
      4 C4        -12.7241    3.0138   14.8182 C.ar      1 UNK         0.0000 
      5 C5        -13.0486    3.6621   13.5954 C.ar      1 UNK         0.0000 
      6 C6        -12.1900    4.7145   13.1650 C.ar      1 UNK         0.0000 
      7 C7        -14.1805    3.3144   12.7985 C.ar      1 UNK         0.0000 
      8 C8        -14.4630    3.9971   11.6074 C.ar      1 UNK         0.0000 
      9 C9        -13.5881    5.0231   11.2009 C.ar      1 UNK         0.0000 
     10 C10       -12.4731    5.3805   11.9581 C.ar      1 UNK         0.0000 
     11 N11       -15.6372    3.6102   10.9003 N.am      1 UNK         0.0000 
     12 C12       -16.1757    4.1453    9.7755 C.2       1 UNK         0.0000 
     13 O13       -15.6585    5.0657    9.1516 O.2       1 UNK         0.0000 
     14 C14       -17.5227    3.6321    9.2130 C.3       1 UNK         0.0000 
     15 C15       -18.1713    2.4302    9.9467 C.3       1 UNK         0.0000 
     16 C16       -19.5993    2.0319    9.5267 C.2       1 UNK         0.0000 
     17 O17       -20.1087    1.0947   10.1334 O.2       1 UNK         0.0000 
     18 N18       -20.2799    2.7132    8.5797 N.am      1 UNK         0.0000 
     19 C19       -21.7179    2.5182    8.3227 C.3       1 UNK         0.0000 
     20 C20       -22.1221    2.2747    6.8532 C.3       1 UNK         0.0000 
     21 C21       -23.6279    1.9716    6.7224 C.3       1 UNK         0.0000 
     22 C22       -24.1323    1.9752    5.2739 C.3       1 UNK         0.0000 
     23 C23       -25.5731    1.4417    5.2017 C.3       1 UNK         0.0000 
     24 N24       -26.4308    1.5345    3.9839 N.am      1 UNK         0.0000 
     25 O25       -27.6455    1.0713    4.3189 O.co2     1 UNK         0.0000 
     26 C26       -26.1721    2.1176    2.7629 C.2       1 UNK         0.0000 
     27 O27       -27.1562    2.4213    2.0613 O.co2     1 UNK         0.0000 
     28 C28       -24.7570    2.3022    2.1400 C.3       1 UNK         0.0000 
     29 C29       -24.5446    3.5579    1.2315 C.3       1 UNK         0.0000 
     30 C30       -24.8106    3.4166   -0.2736 C.2       1 UNK         0.0000 
     31 O31       -25.4849    4.2636   -0.8522 O.2       1 UNK         0.0000 
     32 N32       -24.2068    2.4058   -0.9299 N.am      1 UNK         0.0000 
     33 C33       -24.1381    2.2012   -2.3834 C.3       1 UNK         0.0000 
     34 C34       -25.4681    2.0543   -3.1571 C.3       1 UNK         0.0000 
     35 C35       -26.3476    0.8548   -2.7595 C.3       1 UNK         0.0000 
     36 C36       -27.0585    1.0803   -1.4362 C.3       1 UNK         0.0000 
     37 C37       -28.0957    0.0001   -1.0934 C.3       1 UNK         0.0000 
     38 N38       -28.8593    0.4146    0.0968 N.am      1 UNK         0.0000 
     39 O39       -28.3422   -0.0669    1.2430 O.co2     1 UNK         0.0000 
     40 C40       -29.7336    1.4606   -0.0026 C.2       1 UNK         0.0000 
     41 O41       -29.9593    2.1448    1.0013 O.co2     1 UNK         0.0000 
     42 C42       -30.4438    1.8249   -1.3347 C.3       1 UNK         0.0000 
     43 C43       -31.3784    0.7377   -1.9452 C.3       1 UNK         0.0000 
     44 C44       -32.3271    0.0652   -0.9609 C.2       1 UNK         0.0000 
     45 O45       -32.2112   -1.1291   -0.7108 O.2       1 UNK         0.0000 
     46 N46       -33.2440    0.8470   -0.3744 N.am      1 UNK         0.0000 
     47 C47       -34.0987    0.4173    0.7289 C.3       1 UNK         0.0000 
     48 C48       -35.0372    1.5463    1.2139 C.3       1 UNK         0.0000 
     49 C49       -35.0601    1.7715    2.7444 C.3       1 UNK         0.0000 
     50 C50       -33.7716    2.3984    3.3072 C.3       1 UNK         0.0000 
     51 C51       -32.8415    1.4200    4.0689 C.3       1 UNK         0.0000 
     52 N52       -31.3913    1.6762    3.8646 N.am      1 UNK         0.0000 
     53 O53       -30.7457    0.6039    3.3685 O.co2     1 UNK         0.0000 
     54 C54       -30.8046    2.8923    4.0842 C.2       1 UNK         0.0000 
     55 O55       -29.6563    3.0903    3.6670 O.co2     1 UNK         0.0000 
     56 C56       -31.5143    4.0261    4.8239 C.3       1 UNK         0.0000 
     57 H57        -9.9560    4.8170   15.5862 H         1 UNK         0.0000 
     58 H58       -11.3401    2.9550   16.4784 H         1 UNK         0.0000 
     59 H59       -13.3413    2.2085   15.1870 H         1 UNK         0.0000 
     60 H60       -14.8220    2.5186   13.1445 H         1 UNK         0.0000 
     61 H61       -13.7359    5.5859   10.2949 H         1 UNK         0.0000 
     62 H62       -11.8149    6.1753   11.6369 H         1 UNK         0.0000 
     63 H63       -16.1509    2.8468   11.3105 H         1 UNK         0.0000 
     64 H64       -18.1881    4.4972    9.2343 H         1 UNK         0.0000 
     65 H65       -17.3245    3.3573    8.1749 H         1 UNK         0.0000 
     66 H66       -18.2543    2.6473   11.0131 H         1 UNK         0.0000 
     67 H67       -17.5563    1.5400    9.8036 H         1 UNK         0.0000 
     68 H68       -19.8351    3.4845    8.1084 H         1 UNK         0.0000 
     69 H69       -22.2622    3.3921    8.6868 H         1 UNK         0.0000 
     70 H70       -22.1291    1.6931    8.9111 H         1 UNK         0.0000 
     71 H71       -21.5642    1.4325    6.4346 H         1 UNK         0.0000 
     72 H72       -21.8795    3.1560    6.2545 H         1 UNK         0.0000 
     73 H73       -24.2123    2.7000    7.2934 H         1 UNK         0.0000 
     74 H74       -23.8326    1.0000    7.1835 H         1 UNK         0.0000 
     75 H75       -23.4930    1.3311    4.6729 H         1 UNK         0.0000 
     76 H76       -24.1033    3.0011    4.9106 H         1 UNK         0.0000 
     77 H77       -26.1016    1.9971    5.9827 H         1 UNK         0.0000 
     78 H78       -25.5545    0.4069    5.5564 H         1 UNK         0.0000 
     79 H79       -24.5105    1.3872    1.5956 H         1 UNK         0.0000 
     80 H80       -23.9953    2.3770    2.8965 H         1 UNK         0.0000 
     81 H81       -23.4857    3.8083    1.2512 H         1 UNK         0.0000 
     82 H82       -25.0731    4.4207    1.6291 H         1 UNK         0.0000 
     83 H83       -23.7356    1.7147   -0.3690 H         1 UNK         0.0000 
     84 H84       -23.5819    1.2707   -2.5237 H         1 UNK         0.0000 
     85 H85       -23.5339    2.9868   -2.8438 H         1 UNK         0.0000 
     86 H86       -25.2203    1.9491   -4.2174 H         1 UNK         0.0000 
     87 H87       -26.0416    2.9818   -3.0913 H         1 UNK         0.0000 
     88 H88       -25.7612   -0.0642   -2.7253 H         1 UNK         0.0000 
     89 H89       -27.1088    0.7183   -3.5317 H         1 UNK         0.0000 
     90 H90       -27.5220    2.0654   -1.4789 H         1 UNK         0.0000 
     91 H91       -26.3525    1.1114   -0.6138 H         1 UNK         0.0000 
     92 H92       -27.5601   -0.9417   -0.9373 H         1 UNK         0.0000 
     93 H93       -28.7450   -0.2186   -1.9483 H         1 UNK         0.0000 
     94 H94       -31.0483    2.7228   -1.1592 H         1 UNK         0.0000 
     95 H95       -29.7215    2.1608   -2.0837 H         1 UNK         0.0000 
     96 H96       -30.7944   -0.0254   -2.4544 H         1 UNK         0.0000 
     97 H97       -31.9557    1.1741   -2.7567 H         1 UNK         0.0000 
     98 H98       -33.3175    1.8001   -0.6870 H         1 UNK         0.0000 
     99 H99       -33.4546    0.0657    1.5378 H         1 UNK         0.0000 
    100 H100      -34.6955   -0.4416    0.4078 H         1 UNK         0.0000 
    101 H101      -36.0521    1.3211    0.8684 H         1 UNK         0.0000 
    102 H102      -34.7872    2.4957    0.7337 H         1 UNK         0.0000 
    103 H103      -35.3063    0.8424    3.2650 H         1 UNK         0.0000 
    104 H104      -35.8839    2.4552    2.9540 H         1 UNK         0.0000 
    105 H105      -34.0444    3.1827    4.0087 H         1 UNK         0.0000 
    106 H106      -33.2295    2.8969    2.5008 H         1 UNK         0.0000 
    107 H107      -33.0853    1.3805    5.1385 H         1 UNK         0.0000 
    108 H108      -33.0858    0.4164    3.7144 H         1 UNK         0.0000 
    109 H109      -32.2722    4.4934    4.2028 H         1 UNK         0.0000 
    110 H110      -30.8012    4.8102    5.0861 H         1 UNK         0.0000 
    111 H111      -31.9672    3.6735    5.7476 H         1 UNK         0.0000 
    112 Fe112     -28.9237    1.4188    2.6597 Fe        1 UNK         0.0000 
@<TRIPOS>BOND
     1    1    2 ar   
     2    1    6 ar   
     3    2    3 ar   
     4    2   57 1    
     5    3    4 ar   
     6    3   58 1    
     7    4    5 ar   
     8    4   59 1    
     9    5    6 ar   
    10    5    7 ar   
    11    6   10 ar   
    12    7    8 ar   
    13    7   60 1    
    14    8    9 ar   
    15    8   11 1    
    16    9   10 ar   
    17    9   61 1    
    18   10   62 1    
    19   11   12 am   BACKBONE|DICT|INTERRES
    20   11   63 1    
    21   12   13 2    
    22   12   14 1    
    23   14   15 1    
    24   14   64 1    
    25   14   65 1    
    26   15   16 1    
    27   15   66 1    
    28   15   67 1    
    29   16   17 2    
    30   16   18 am   BACKBONE|DICT|INTERRES
    31   18   19 1    
    32   18   68 1    
    33   19   20 1    
    34   19   69 1    
    35   19   70 1    
    36   20   21 1    
    37   20   71 1    
    38   20   72 1    
    39   21   22 1    
    40   21   73 1    
    41   21   74 1    
    42   22   23 1    
    43   22   75 1    
    44   22   76 1    
    45   23   24 1    
    46   23   77 1    
    47   23   78 1    
    48   24   25 1    
    49   24   26 am   BACKBONE|DICT|INTERRES
    50   25  112 nc   
    51   26   27 2    
    52   26   28 1    
    53   27  112 nc   
    54   28   29 1    
    55   28   79 1    
    56   28   80 1    
    57   29   30 1    
    58   29   81 1    
    59   29   82 1    
    60   30   31 2    
    61   30   32 am   BACKBONE|DICT|INTERRES
    62   32   33 1    
    63   32   83 1    
    64   33   34 1    
    65   33   84 1    
    66   33   85 1    
    67   34   35 1    
    68   34   86 1    
    69   34   87 1    
    70   35   36 1    
    71   35   88 1    
    72   35   89 1    
    73   36   37 1    
    74   36   90 1    
    75   36   91 1    
    76   37   38 1    
    77   37   92 1    
    78   37   93 1    
    79   38   39 1    
    80   38   40 am   BACKBONE|DICT|INTERRES
    81   39  112 nc   
    82   40   41 2    
    83   40   42 1    
    84   41  112 nc   
    85   42   43 1    
    86   42   94 1    
    87   42   95 1    
    88   43   44 1    
    89   43   96 1    
    90   43   97 1    
    91   44   45 2    
    92   44   46 am   BACKBONE|DICT|INTERRES
    93   46   47 1    
    94   46   98 1    
    95   47   48 1    
    96   47   99 1    
    97   47  100 1    
    98   48   49 1    
    99   48  101 1    
   100   48  102 1    
   101   49   50 1    
   102   49  103 1    
   103   49  104 1    
   104   50   51 1    
   105   50  105 1    
   106   50  106 1    
   107   51   52 1    
   108   51  107 1    
   109   51  108 1    
   110   52   53 1    
   111   52   54 am   BACKBONE|DICT|INTERRES
   112   53  112 nc   
   113   54   55 2    
   114   54   56 1    
   115   55  112 nc   
   116   56  109 1    
   117   56  110 1    
   118   56  111 1    
@<TRIPOS>SUBSTRUCTURE
     1 UNK         1 GROUP             0       ****    0 ROOT    
