@<TRIPOS>MOLECULE
168_c1
57   63    1
SMALL
USER_CHARGES


@<TRIPOS>ATOM
      1 Fe1         0.0850   -0.5454    1.3467 Fe        1 UNK         0.0000 
      2 O2          1.3774   -2.1276    0.8638 O.co2     1 UNK         0.0000 
      3 N3          0.6568   -3.2484    0.9145 N.am      1 UNK         0.0000 
      4 C4          1.2765   -4.5545    0.6557 C.3       1 UNK         0.0000 
      5 C5          0.4055   -5.2961   -0.3818 C.3       1 UNK         0.0000 
      6 C6         -1.1003   -5.2121   -0.0250 C.3       1 UNK         0.0000 
      7 C7         -1.5289   -3.7342    0.1532 C.3       1 UNK         0.0000 
      8 H8         -2.5752   -3.6522    0.4579 H         1 UNK         0.0000 
      9 C9         -0.6442   -3.1422    1.3246 C.2       1 UNK         0.0000 
     10 O10        -1.0443   -2.2377    2.0844 O.co2     1 UNK         0.0000 
     11 N11        -1.3563   -2.9607   -1.1367 N.am      1 UNK         0.0000 
     12 C12        -1.1300   -1.6408   -1.2448 C.2       1 UNK         0.0000 
     13 O13        -1.3290   -0.8979   -0.2718 O.co2     1 UNK         0.0000 
     14 C14        -0.4307   -1.0889   -2.5157 C.3       1 UNK         0.0000 
     15 N15        -0.2594    0.3871   -2.5083 N.am      1 UNK         0.0000 
     16 C16         0.3139    1.1073   -1.5189 C.2       1 UNK         0.0000 
     17 O17         1.0061    0.6021   -0.6191 O.co2     1 UNK         0.0000 
     18 C18        -0.0598    2.6139   -1.4230 C.3       1 UNK         0.0000 
     19 H19         0.3585    3.0286   -0.5019 H         1 UNK         0.0000 
     20 N20         0.6957    3.3170   -2.5219 N.4       1 UNK         0.0000 
     21 H21         0.3927    3.0028   -3.4314 H         1 UNK         0.0000 
     22 H22         0.5365    4.3131   -2.4462 H         1 UNK         0.0000 
     23 H23         1.6881    3.1486   -2.4133 H         1 UNK         0.0000 
     24 C24        -1.6054    2.8058   -1.4624 C.3       1 UNK         0.0000 
     25 C25        -2.1955    4.1971   -1.1141 C.3       1 UNK         0.0000 
     26 C26        -1.9020    4.7894    0.2879 C.3       1 UNK         0.0000 
     27 N27        -1.6836    3.7770    1.3011 N.am      1 UNK         0.0000 
     28 C28        -2.2043    3.5956    2.5157 C.2       1 UNK         0.0000 
     29 O29        -3.1514    4.2348    2.9666 O.2       1 UNK         0.0000 
     30 C30        -1.3354    2.6340    3.3113 C.ar      1 UNK         0.0000 
     31 C31        -0.6307    1.5580    2.6932 C.ar      1 UNK         0.0000 
     32 O32        -0.9248    1.1368    1.5186 O.co2     1 UNK         0.0000 
     33 C33         0.4290    0.9343    3.3798 C.ar      1 UNK         0.0000 
     34 O34         1.1707    0.0577    2.8431 O.co2     1 UNK         0.0000 
     35 C35         0.7162    1.2945    4.6917 C.ar      1 UNK         0.0000 
     36 C36        -0.0389    2.2666    5.3403 C.ar      1 UNK         0.0000 
     37 C37        -1.0582    2.9349    4.6610 C.ar      1 UNK         0.0000 
     38 H38         2.2874   -4.4021    0.2785 H         1 UNK         0.0000 
     39 H39         1.3553   -5.0965    1.6019 H         1 UNK         0.0000 
     40 H40         0.7418   -6.3251   -0.4716 H         1 UNK         0.0000 
     41 H41         0.5805   -4.8403   -1.3570 H         1 UNK         0.0000 
     42 H42        -1.2850   -5.7641    0.8990 H         1 UNK         0.0000 
     43 H43        -1.7017   -5.6976   -0.7964 H         1 UNK         0.0000 
     44 H44        -1.4923   -3.5006   -1.9808 H         1 UNK         0.0000 
     45 H45         0.5519   -1.5580   -2.5804 H         1 UNK         0.0000 
     46 H46        -0.9864   -1.3781   -3.4083 H         1 UNK         0.0000 
     47 H47        -0.8408    0.8522   -3.1863 H         1 UNK         0.0000 
     48 H48        -1.9869    2.5151   -2.4417 H         1 UNK         0.0000 
     49 H49        -2.0600    2.0913   -0.7721 H         1 UNK         0.0000 
     50 H50        -3.2800    4.0921   -1.1848 H         1 UNK         0.0000 
     51 H51        -1.9415    4.9298   -1.8789 H         1 UNK         0.0000 
     52 H52        -1.0075    5.4168    0.2620 H         1 UNK         0.0000 
     53 H53        -2.7292    5.4374    0.5982 H         1 UNK         0.0000 
     54 H54        -1.0699    2.9809    1.1579 H         1 UNK         0.0000 
     55 H55         1.5509    0.8288    5.2005 H         1 UNK         0.0000 
     56 H56         0.2214    2.5453    6.3502 H         1 UNK         0.0000 
     57 H57        -1.5716    3.7540    5.1445 H         1 UNK         0.0000 
@<TRIPOS>BOND
     1    1    2 nc   
     2    1   10 nc   
     3    1   13 nc   
     4    1   17 nc   
     5    1   32 nc   
     6    1   34 nc   
     7    2    3 1    
     8    3    9 am   BACKBONE|DICT|INTERRES
     9    3    4 1    
    10    4   39 1    
    11    4    5 1    
    12    4   38 1    
    13    5    6 1    
    14    5   40 1    
    15    5   41 1    
    16    6    7 1    
    17    6   42 1    
    18    6   43 1    
    19    7    8 1    
    20    7    9 1    
    21    7   11 1    
    22    9   10 2    
    23   11   12 am   BACKBONE|DICT|INTERRES
    24   11   44 1    
    25   12   13 2    
    26   12   14 1    
    27   14   15 1    
    28   14   45 1    
    29   14   46 1    
    30   15   16 am   BACKBONE|DICT|INTERRES
    31   15   47 1    
    32   16   18 1    
    33   16   17 2    
    34   18   19 1    
    35   18   20 1    
    36   18   24 1    
    37   20   23 1    
    38   20   22 1    
    39   20   21 1    
    40   24   25 1    
    41   24   49 1    
    42   24   48 1    
    43   25   26 1    
    44   25   50 1    
    45   25   51 1    
    46   26   53 1    
    47   26   27 1    
    48   26   52 1    
    49   27   28 am   BACKBONE|DICT|INTERRES
    50   27   54 1    
    51   28   29 2    
    52   28   30 1    
    53   30   37 ar   
    54   30   31 ar   
    55   31   33 ar   
    56   31   32 1    
    57   33   35 ar   
    58   33   34 1    
    59   35   55 1    
    60   35   36 ar   
    61   36   56 1    
    62   36   37 ar   
    63   37   57 1    
@<TRIPOS>SUBSTRUCTURE
     1 UNK         1 GROUP             0       ****    0 ROOT    
