@<TRIPOS>MOLECULE
048_c1
91   98    1
SMALL
USER_CHARGES


@<TRIPOS>ATOM
      1 O1          3.4749    1.7044  -16.9615 O.co2     1 UNK         0.0000 
      2 N2          4.5895    1.2588  -16.3461 N.am      1 UNK         0.0000 
      3 C3          5.8281    2.0024  -16.6536 C.3       1 UNK         0.0000 
      4 C4          6.8848    1.9494  -15.5318 C.3       1 UNK         0.0000 
      5 C5          6.9914    0.5362  -14.9903 C.3       1 UNK         0.0000 
      6 C6          5.6300    0.0977  -14.3968 C.3       1 UNK         0.0000 
      7 H7          5.7376   -0.9898  -14.3827 H         1 UNK         0.0000 
      8 C8          4.3911    0.3738  -15.3114 C.2       1 UNK         0.0000 
      9 O9          3.2323    0.0982  -14.9266 O.co2     1 UNK         0.0000 
     10 N10         5.3091    0.5713  -13.0220 N.am      1 UNK         0.0000 
     11 C11         4.6515   -0.1925  -12.1365 C.2       1 UNK         0.0000 
     12 O12         4.7721   -1.4204  -12.2105 O.2       1 UNK         0.0000 
     13 C13         3.8022    0.4679  -10.9803 C.3       1 UNK         0.0000 
     14 H14         4.4948    0.6906  -10.1625 H         1 UNK         0.0000 
     15 C15         2.9676    1.7522  -11.3245 C.3       1 UNK         0.0000 
     16 C16         3.6117    3.1413  -11.6269 C.3       1 UNK         0.0000 
     17 C17         2.7390    4.1239  -12.5217 C.3       1 UNK         0.0000 
     18 N18         2.3783    3.6174  -13.8634 N.pl3     1 UNK         0.0000 
     19 O19         3.0897    2.5994  -14.2190 O.co2     1 UNK         0.0000 
     20 C20         1.4134    4.1244  -14.6792 C.2       1 UNK         0.0000 
     21 O21         1.1291    3.5463  -15.7576 O.co2     1 UNK         0.0000 
     22 N22         2.8114   -0.5264  -10.5397 N.am      1 UNK         0.0000 
     23 C23         3.0734   -1.6525   -9.8656 C.2       1 UNK         0.0000 
     24 O24         4.0669   -1.7931   -9.1517 O.2       1 UNK         0.0000 
     25 C25         2.0286   -2.7954   -9.9896 C.3       1 UNK         0.0000 
     26 H26         1.5969   -2.9046   -8.9979 H         1 UNK         0.0000 
     27 C27         2.6294   -4.1672  -10.4129 C.3       1 UNK         0.0000 
     28 O28         3.3700   -4.8135   -9.3948 O.3       1 UNK         0.0000 
     29 N29         0.8889   -2.4795  -10.8724 N.am      1 UNK         0.0000 
     30 C30         0.9057   -2.4517  -12.2208 C.2       1 UNK         0.0000 
     31 O31         1.9342   -2.6344  -12.8606 O.2       1 UNK         0.0000 
     32 C32        -0.4565   -2.2276  -12.9414 C.3       1 UNK         0.0000 
     33 H33        -0.9735   -3.1892  -12.9059 H         1 UNK         0.0000 
     34 C34        -1.3347   -1.2073  -12.1715 C.3       1 UNK         0.0000 
     35 O35        -2.6638   -1.1334  -12.6564 O.3       1 UNK         0.0000 
     36 N36        -0.3020   -1.8513  -14.3593 N.am      1 UNK         0.0000 
     37 C37         0.0359   -2.7316  -15.3263 C.2       1 UNK         0.0000 
     38 O38         0.1404   -3.9462  -15.1108 O.2       1 UNK         0.0000 
     39 C39         0.2207   -2.2593  -16.8082 C.3       1 UNK         0.0000 
     40 H40         0.4748   -3.1528  -17.3937 H         1 UNK         0.0000 
     41 C41         1.3658   -1.2137  -17.0336 C.3       1 UNK         0.0000 
     42 O42         1.0408    0.1762  -16.9086 O.co2     1 UNK         0.0000 
     43 N43        -0.9180   -1.5916  -17.3935 N.am      1 UNK         0.0000 
     44 C44        -2.2044   -1.5204  -17.0739 C.2       1 UNK         0.0000 
     45 O45        -2.9260   -2.4757  -16.7655 O.2       1 UNK         0.0000 
     46 C46        -2.7318   -0.0537  -17.1499 C.3       1 UNK         0.0000 
     47 H47        -2.7224    0.2319  -18.2051 H         1 UNK         0.0000 
     48 N48        -1.8464    0.8228  -16.4111 N.2       1 UNK         0.0000 
     49 C49        -2.4244    1.1293  -15.3329 C.2       1 UNK         0.0000 
     50 O50        -3.7254    0.6995  -15.2656 O.3       1 UNK         0.0000 
     51 C51        -4.0887    0.1228  -16.5013 C.3       1 UNK         0.0000 
     52 C52        -1.9250    1.8720  -14.1531 C.ar      1 UNK         0.0000 
     53 C53        -0.6074    1.7700  -13.6234 C.ar      1 UNK         0.0000 
     54 O54         0.3672    1.0745  -14.1331 O.co2     1 UNK         0.0000 
     55 C55        -0.3610    2.4461  -12.4188 C.ar      1 UNK         0.0000 
     56 C56        -1.3207    3.2298  -11.7786 C.ar      1 UNK         0.0000 
     57 C57        -2.5881    3.3545  -12.3235 C.ar      1 UNK         0.0000 
     58 C58        -2.8810    2.6720  -13.4937 C.ar      1 UNK         0.0000 
     59 H59         5.5496    3.0425  -16.8275 H         1 UNK         0.0000 
     60 H60         6.2267    1.6085  -17.5894 H         1 UNK         0.0000 
     61 H61         6.6092    2.6276  -14.7244 H         1 UNK         0.0000 
     62 H62         7.8440    2.3172  -15.8940 H         1 UNK         0.0000 
     63 H63         7.7941    0.4569  -14.2536 H         1 UNK         0.0000 
     64 H64         7.2792   -0.1426  -15.7984 H         1 UNK         0.0000 
     65 H65         5.2047    1.5711  -12.9313 H         1 UNK         0.0000 
     66 H66         2.2453    1.9146  -10.5213 H         1 UNK         0.0000 
     67 H67         2.3791    1.4495  -12.1897 H         1 UNK         0.0000 
     68 H68         3.8296    3.6465  -10.6923 H         1 UNK         0.0000 
     69 H69         4.5824    2.9974  -12.0958 H         1 UNK         0.0000 
     70 H70         3.2837    5.0598  -12.6811 H         1 UNK         0.0000 
     71 H71         1.8087    4.3846  -12.0058 H         1 UNK         0.0000 
     72 H72         0.9158    5.0169  -14.2703 H         1 UNK         0.0000 
     73 H73         1.9890   -0.5460  -11.1263 H         1 UNK         0.0000 
     74 H74         3.2571   -4.0750  -11.3034 H         1 UNK         0.0000 
     75 H75         1.8241   -4.8506  -10.6841 H         1 UNK         0.0000 
     76 H76         4.2147   -5.0667   -9.7762 H         1 UNK         0.0000 
     77 H77         0.0134   -2.3284  -10.4044 H         1 UNK         0.0000 
     78 H78        -0.8548   -0.2346  -12.1293 H         1 UNK         0.0000 
     79 H79        -1.4509   -1.4854  -11.1229 H         1 UNK         0.0000 
     80 H80        -2.6735   -0.4455  -13.3336 H         1 UNK         0.0000 
     81 H81        -0.2548   -0.8487  -14.5569 H         1 UNK         0.0000 
     82 H82         1.7891   -1.4119  -18.0235 H         1 UNK         0.0000 
     83 H83         2.1967   -1.5307  -16.4161 H         1 UNK         0.0000 
     84 H84        -0.5240   -0.6540  -17.5516 H         1 UNK         0.0000 
     85 H85        -4.6940    0.8144  -17.0866 H         1 UNK         0.0000 
     86 H86        -4.6649   -0.7885  -16.3522 H         1 UNK         0.0000 
     87 H87         0.6103    2.4172  -11.9757 H         1 UNK         0.0000 
     88 H88        -1.0497    3.7910  -10.8973 H         1 UNK         0.0000 
     89 H89        -3.3251    3.9941  -11.8680 H         1 UNK         0.0000 
     90 H90        -3.8657    2.8064  -13.9207 H         1 UNK         0.0000 
     91 Fe91        1.9585    1.5675  -15.5411 Fe        1 UNK         0.0000 
@<TRIPOS>BOND
     1    1    2 1    
     2    1   91 nc   
     3    2    3 1    
     4    2    8 am   BACKBONE|DICT|INTERRES
     5    3    4 1    
     6    3   59 1    
     7    3   60 1    
     8    4    5 1    
     9    4   61 1    
    10    4   62 1    
    11    5    6 1    
    12    5   63 1    
    13    5   64 1    
    14    6    8 1    
    15    6   10 1    
    16    6    7 1    
    17    8    9 2    
    18    9   91 nc   
    19   10   11 am   BACKBONE|DICT|INTERRES
    20   10   65 1    
    21   11   12 2    
    22   11   13 1    
    23   13   14 1    
    24   13   15 1    
    25   13   22 1    
    26   15   16 1    
    27   15   66 1    
    28   15   67 1    
    29   16   17 1    
    30   16   68 1    
    31   16   69 1    
    32   17   18 1    
    33   17   70 1    
    34   17   71 1    
    35   18   19 1    
    36   18   20 1    
    37   19   91 nc   
    38   20   21 2    
    39   20   72 1    
    40   21   91 nc   
    41   22   23 am   BACKBONE|DICT|INTERRES
    42   22   73 1    
    43   23   24 2    
    44   23   25 1    
    45   25   27 1    
    46   25   29 1    
    47   25   26 1    
    48   27   28 1    
    49   27   74 1    
    50   27   75 1    
    51   28   76 1    
    52   29   30 am   BACKBONE|DICT|INTERRES
    53   29   77 1    
    54   30   31 2    
    55   30   32 1    
    56   32   33 1    
    57   32   34 1    
    58   32   36 1    
    59   34   35 1    
    60   34   78 1    
    61   34   79 1    
    62   35   80 1    
    63   36   37 am   BACKBONE|DICT|INTERRES
    64   36   81 1    
    65   37   38 2    
    66   37   39 1    
    67   39   41 1    
    68   39   43 1    
    69   39   40 1    
    70   41   42 1    
    71   41   82 1    
    72   41   83 1    
    73   42   91 nc   
    74   43   44 am   BACKBONE|DICT|INTERRES
    75   43   84 1    
    76   44   45 2    
    77   44   46 1    
    78   46   48 1    
    79   46   51 1    
    80   46   47 1    
    81   48   49 2    
    82   49   50 1    
    83   49   52 1    
    84   50   51 1    
    85   51   85 1    
    86   51   86 1    
    87   52   53 ar   
    88   52   58 ar   
    89   53   54 1    
    90   53   55 ar   
    91   54   91 nc   
    92   55   56 ar   
    93   55   87 1    
    94   56   57 ar   
    95   56   88 1    
    96   57   58 ar   
    97   57   89 1    
    98   58   90 1    
@<TRIPOS>SUBSTRUCTURE
     1 UNK         1 GROUP             0       ****    0 ROOT    
