@<TRIPOS>MOLECULE
237_c1
109   116    1
SMALL
USER_CHARGES


@<TRIPOS>ATOM
      1 Fe1        -0.0001    0.1151   -0.1120 Fe        1 UNK         0.0000 
      2 C2          2.6002    0.6287   -3.7109 C.ar      1 UNK         0.0000 
      3 C3          2.1504    1.9476   -3.7071 C.ar      1 UNK         0.0000 
      4 C4          1.7196    2.5230   -2.5195 C.ar      1 UNK         0.0000 
      5 C5          1.7687    1.8043   -1.3263 C.ar      1 UNK         0.0000 
      6 O6          1.1956    2.3636   -0.3338 O.co2     1 UNK         0.0000 
      7 C7          2.3158    0.4956   -1.2968 C.ar      1 UNK         0.0000 
      8 O8          2.4182   -0.1666   -0.2001 O.co2     1 UNK         0.0000 
      9 C9          2.6562   -0.1289   -2.5263 C.ar      1 UNK         0.0000 
     10 C10         2.8580   -1.6315   -2.6685 C.2       1 UNK         0.0000 
     11 O11         3.4965   -2.1509   -3.5966 O.2       1 UNK         0.0000 
     12 N12         2.1010   -2.3101   -1.7988 N.am      1 UNK         0.0000 
     13 C13         1.3676   -3.5806   -1.7994 C.3       1 UNK         0.0000 
     14 H14         1.9084   -4.2416   -1.1241 H         1 UNK         0.0000 
     15 C15        -0.0399   -3.3103   -1.1157 C.3       1 UNK         0.0000 
     16 H16        -0.4381   -4.2885   -0.8210 H         1 UNK         0.0000 
     17 O17         0.0070   -2.4474   -0.0134 O.co2     1 UNK         0.0000 
     18 C18        -1.1077   -2.7690   -2.0979 C.3       1 UNK         0.0000 
     19 C19         1.2338   -4.2994   -3.1713 C.2       1 UNK         0.0000 
     20 O20         1.1791   -3.6928   -4.2453 O.2       1 UNK         0.0000 
     21 N21         1.0536   -5.6249   -3.1246 N.am      1 UNK         0.0000 
     22 C22         0.5998   -6.3127   -4.3189 C.3       1 UNK         0.0000 
     23 C23         0.2283   -7.7705   -4.0897 C.3       1 UNK         0.0000 
     24 C24        -0.3514   -8.3325   -5.3954 C.3       1 UNK         0.0000 
     25 N25        -0.6358   -9.7534   -5.3117 N.am      1 UNK         0.0000 
     26 C26        -0.0225  -10.7121   -6.0098 C.2       1 UNK         0.0000 
     27 O27         0.8873  -10.4610   -6.8003 O.2       1 UNK         0.0000 
     28 C28        -0.5173  -12.1326   -5.8168 C.ar      1 UNK         0.0000 
     29 C29        -1.4179  -12.5181   -4.7945 C.ar      1 UNK         0.0000 
     30 O30        -1.9475  -11.6407   -3.8756 O.3       1 UNK         0.0000 
     31 C31        -1.8132  -13.8599   -4.6753 C.ar      1 UNK         0.0000 
     32 O32        -2.6768  -14.2400   -3.6752 O.3       1 UNK         0.0000 
     33 C33        -1.3334  -14.8191   -5.5629 C.ar      1 UNK         0.0000 
     34 C34        -0.4584  -14.4494   -6.5796 C.ar      1 UNK         0.0000 
     35 C35        -0.0567  -13.1210   -6.7025 C.ar      1 UNK         0.0000 
     36 H36         2.8460    0.1601   -4.6602 H         1 UNK         0.0000 
     37 H37         2.0837    2.4998   -4.6302 H         1 UNK         0.0000 
     38 H38         1.2833    3.5077   -2.5294 H         1 UNK         0.0000 
     39 H39         2.0213   -1.7916   -0.9139 H         1 UNK         0.0000 
     40 H40        -0.6636   -2.0793   -2.8091 H         1 UNK         0.0000 
     41 H41        -1.9240   -2.2333   -1.5948 H         1 UNK         0.0000 
     42 H42        -1.5681   -3.5619   -2.6879 H         1 UNK         0.0000 
     43 H43         0.9768   -6.0468   -2.2163 H         1 UNK         0.0000 
     44 H44        -0.2785   -5.7941   -4.7120 H         1 UNK         0.0000 
     45 H45         1.3549   -6.2344   -5.0998 H         1 UNK         0.0000 
     46 H46         1.1111   -8.3397   -3.7871 H         1 UNK         0.0000 
     47 H47        -0.5061   -7.8584   -3.2847 H         1 UNK         0.0000 
     48 H48        -1.2603   -7.7931   -5.6646 H         1 UNK         0.0000 
     49 H49         0.3429   -8.1027   -6.2087 H         1 UNK         0.0000 
     50 H50        -1.3431  -10.0716   -4.6558 H         1 UNK         0.0000 
     51 H51        -2.4989  -12.1711   -3.2841 H         1 UNK         0.0000 
     52 H52        -2.8616  -15.1830   -3.6850 H         1 UNK         0.0000 
     53 H53        -1.6336  -15.8516   -5.4725 H         1 UNK         0.0000 
     54 H54        -0.0848  -15.1886   -7.2737 H         1 UNK         0.0000 
     55 H55         0.6269  -12.8611   -7.5015 H         1 UNK         0.0000 
     56 C56        -2.6014    3.7136   -0.6351 C.ar      1 UNK         0.0000 
     57 C57        -2.1554    3.7044   -1.9549 C.ar      1 UNK         0.0000 
     58 C58        -1.7257    2.5148   -2.5270 C.ar      1 UNK         0.0000 
     59 C59        -1.7733    1.3243   -1.8030 C.ar      1 UNK         0.0000 
     60 O60        -1.2000    0.3300   -2.3590 O.co2     1 UNK         0.0000 
     61 C61        -2.3177    1.2999   -0.4935 C.ar      1 UNK         0.0000 
     62 O62        -2.4185    0.2054    0.1737 O.co2     1 UNK         0.0000 
     63 C63        -2.6547    2.5318    0.1277 C.ar      1 UNK         0.0000 
     64 C64        -2.8448    2.6815    1.6306 C.2       1 UNK         0.0000 
     65 O65        -3.4781    3.6116    2.1519 O.2       1 UNK         0.0000 
     66 N66        -2.0811    1.8145    2.3058 N.am      1 UNK         0.0000 
     67 C67        -1.3577    1.8044    3.5815 C.3       1 UNK         0.0000 
     68 H68        -1.9053    1.1290    4.2364 H         1 UNK         0.0000 
     69 C69         0.0478    1.1171    3.3132 C.3       1 UNK         0.0000 
     70 H70         0.4463    0.8237    4.2918 H         1 UNK         0.0000 
     71 O71        -0.0022    0.0140    2.4515 O.co2     1 UNK         0.0000 
     72 C72         1.1156    2.0971    2.7675 C.3       1 UNK         0.0000 
     73 C73        -1.2213    3.1737    4.3051 C.2       1 UNK         0.0000 
     74 O74        -1.1602    4.2491    3.7016 O.2       1 UNK         0.0000 
     75 N75        -1.0480    3.1232    5.6315 N.am      1 UNK         0.0000 
     76 C76        -0.5953    4.3152    6.3245 C.3       1 UNK         0.0000 
     77 C77        -0.2265    4.0817    7.7828 C.3       1 UNK         0.0000 
     78 C78         0.3557    5.3844    8.3483 C.3       1 UNK         0.0000 
     79 N79         0.6378    5.2984    9.7695 N.am      1 UNK         0.0000 
     80 C80         0.0284    6.0007   10.7277 C.2       1 UNK         0.0000 
     81 O81        -0.8785    6.7944   10.4761 O.2       1 UNK         0.0000 
     82 C82         0.5246    5.8091   12.1482 C.ar      1 UNK         0.0000 
     83 C83         1.4267    4.7883   12.5336 C.ar      1 UNK         0.0000 
     84 O84         1.9552    3.8682   11.6567 O.3       1 UNK         0.0000 
     85 C85         1.8253    4.6719   13.8747 C.ar      1 UNK         0.0000 
     86 O86         2.6914    3.6739   14.2545 O.3       1 UNK         0.0000 
     87 C87         1.3465    5.5606   14.8334 C.ar      1 UNK         0.0000 
     88 C88         0.4692    6.5753   14.4640 C.ar      1 UNK         0.0000 
     89 C89         0.0647    6.6958   13.1361 C.ar      1 UNK         0.0000 
     90 H90        -2.8446    4.6650   -0.1689 H         1 UNK         0.0000 
     91 H91        -2.0892    4.6257   -2.5107 H         1 UNK         0.0000 
     92 H92        -1.2911    2.5210   -3.5121 H         1 UNK         0.0000 
     93 H93        -2.0095    0.9278    1.7893 H         1 UNK         0.0000 
     94 H94         0.6702    2.8083    2.0792 H         1 UNK         0.0000 
     95 H95         1.9291    1.5925    2.2291 H         1 UNK         0.0000 
     96 H96         1.5796    2.6872    3.5584 H         1 UNK         0.0000 
     97 H97        -0.9783    2.2140    6.0526 H         1 UNK         0.0000 
     98 H98         0.2841    4.7096    5.8096 H         1 UNK         0.0000 
     99 H99        -1.3499    5.0967    6.2473 H         1 UNK         0.0000 
    100 H100       -1.1110    3.7801    8.3499 H         1 UNK         0.0000 
    101 H101        0.5057    3.2744    7.8697 H         1 UNK         0.0000 
    102 H102        1.2668    5.6521    7.8109 H         1 UNK         0.0000 
    103 H103       -0.3354    6.2004    8.1184 H         1 UNK         0.0000 
    104 H104        1.3440    4.6414   10.0879 H         1 UNK         0.0000 
    105 H105        2.5074    3.2776   12.1872 H         1 UNK         0.0000 
    106 H106        2.8808    3.6875   15.1966 H         1 UNK         0.0000 
    107 H107        1.6493    5.4724   15.8654 H         1 UNK         0.0000 
    108 H108        0.0963    7.2702   15.2029 H         1 UNK         0.0000 
    109 H109       -0.6200    7.4938   12.8764 H         1 UNK         0.0000 
@<TRIPOS>BOND
     1    1    6 nc   
     2    1    8 nc   
     3    1   17 nc   
     4    1   60 nc   
     5    1   62 nc   
     6    1   71 nc   
     7    2    3 ar   
     8    2    9 ar   
     9    2   36 1    
    10    3    4 ar   
    11    3   37 1    
    12    4    5 ar   
    13    4   38 1    
    14    5    7 ar   
    15    5    6 1    
    16    7    8 1    
    17    7    9 ar   
    18    9   10 1    
    19   10   12 am   BACKBONE|DICT|INTERRES
    20   10   11 2    
    21   12   39 1    
    22   12   13 1    
    23   13   15 1    
    24   13   14 1    
    25   13   19 1    
    26   15   16 1    
    27   15   17 1    
    28   15   18 1    
    29   18   41 1    
    30   18   40 1    
    31   18   42 1    
    32   19   20 2    
    33   19   21 am   BACKBONE|DICT|INTERRES
    34   21   43 1    
    35   21   22 1    
    36   22   23 1    
    37   22   44 1    
    38   22   45 1    
    39   23   46 1    
    40   23   47 1    
    41   23   24 1    
    42   24   25 1    
    43   24   48 1    
    44   24   49 1    
    45   25   50 1    
    46   25   26 am   BACKBONE|DICT|INTERRES
    47   26   28 1    
    48   26   27 2    
    49   28   29 ar   
    50   28   35 ar   
    51   29   31 ar   
    52   29   30 1    
    53   30   51 1    
    54   31   32 1    
    55   31   33 ar   
    56   32   52 1    
    57   33   53 1    
    58   33   34 ar   
    59   34   35 ar   
    60   34   54 1    
    61   35   55 1    
    62   56   90 1    
    63   56   63 ar   
    64   56   57 ar   
    65   57   58 ar   
    66   57   91 1    
    67   58   59 ar   
    68   58   92 1    
    69   59   61 ar   
    70   59   60 1    
    71   61   62 1    
    72   61   63 ar   
    73   63   64 1    
    74   64   65 2    
    75   64   66 am   BACKBONE|DICT|INTERRES
    76   66   67 1    
    77   66   93 1    
    78   67   73 1    
    79   67   68 1    
    80   67   69 1    
    81   69   70 1    
    82   69   71 1    
    83   69   72 1    
    84   72   96 1    
    85   72   94 1    
    86   72   95 1    
    87   73   75 am   BACKBONE|DICT|INTERRES
    88   73   74 2    
    89   75   97 1    
    90   75   76 1    
    91   76   77 1    
    92   76   98 1    
    93   76   99 1    
    94   77  101 1    
    95   77  100 1    
    96   77   78 1    
    97   78   79 1    
    98   78  102 1    
    99   78  103 1    
   100   79  104 1    
   101   79   80 am   BACKBONE|DICT|INTERRES
   102   80   82 1    
   103   80   81 2    
   104   82   83 ar   
   105   82   89 ar   
   106   83   85 ar   
   107   83   84 1    
   108   84  105 1    
   109   85   86 1    
   110   85   87 ar   
   111   86  106 1    
   112   87  107 1    
   113   87   88 ar   
   114   88  108 1    
   115   88   89 ar   
   116   89  109 1    
@<TRIPOS>SUBSTRUCTURE
     1 UNK         1 GROUP             0       ****    0 ROOT    
