@<TRIPOS>MOLECULE
080_c1
78   82    1
SMALL
USER_CHARGES


@<TRIPOS>ATOM
      1 Fe1        -0.9935    0.4709   -1.3662 Fe        1 UNK         0.0000 
      2 O2         -2.5942    1.5505   -1.7710 O.co2     1 UNK         0.0000 
      3 C3         -2.3689    2.7430   -1.9986 C.2       1 UNK         0.0000 
      4 N4         -1.1451    3.0605   -2.4302 N.am      1 UNK         0.0000 
      5 O5         -0.2626    2.1169   -2.7465 O.co2     1 UNK         0.0000 
      6 C6         -0.6861    4.4514   -2.5902 C.3       1 UNK         0.0000 
      7 C7          0.4781    4.8239   -1.6346 C.3       1 UNK         0.0000 
      8 C8          0.0600    5.0321   -0.1519 C.3       1 UNK         0.0000 
      9 C9          1.2249    5.2341    0.8605 C.3       1 UNK         0.0000 
     10 H10         0.8464    5.6342    1.8048 H         1 UNK         0.0000 
     11 N11         2.2589    6.2152    0.3759 N.4       1 UNK         0.0000 
     12 H12         1.8555    7.1082    0.1336 H         1 UNK         0.0000 
     13 H13         2.6835    5.7809   -0.4352 H         1 UNK         0.0000 
     14 H14         2.9769    6.3118    1.0799 H         1 UNK         0.0000 
     15 C15         1.9997    3.9136    1.1449 C.2       1 UNK         0.0000 
     16 O16         3.1208    3.7511    0.6688 O.2       1 UNK         0.0000 
     17 N17         1.3799    3.0187    1.9179 N.am      1 UNK         0.0000 
     18 C18         1.6937    1.5772    1.9456 C.3       1 UNK         0.0000 
     19 H19         2.5850    1.3741    1.3428 H         1 UNK         0.0000 
     20 C20         2.0238    1.1251    3.3941 C.3       1 UNK         0.0000 
     21 H21         2.7680    1.8395    3.7462 H         1 UNK         0.0000 
     22 O22         0.9473    1.2966    4.2967 O.3       1 UNK         0.0000 
     23 C23         2.7521   -0.2305    3.5427 C.3       1 UNK         0.0000 
     24 C24         0.5329    0.8992    1.1388 C.2       1 UNK         0.0000 
     25 O25         0.4161    1.2861   -0.0299 O.co2     1 UNK         0.0000 
     26 N26        -0.4481    0.0167    1.4979 N.am      1 UNK         0.0000 
     27 O27        -1.4603   -0.1996    0.6486 O.co2     1 UNK         0.0000 
     28 C28        -0.4738   -0.9595    2.5923 C.3       1 UNK         0.0000 
     29 C29        -0.1420   -2.3857    2.1001 C.3       1 UNK         0.0000 
     30 C30        -0.2811   -3.4449    3.2024 C.3       1 UNK         0.0000 
     31 C31         0.3849   -4.7856    2.8284 C.3       1 UNK         0.0000 
     32 H32         1.4620   -4.6023    2.7891 H         1 UNK         0.0000 
     33 C33         0.0957   -5.8347    3.9171 C.2       1 UNK         0.0000 
     34 O34         1.2272   -6.1670    4.5823 O.3       1 UNK         0.0000 
     35 O35        -0.9962   -6.3228    4.1000 O.2       1 UNK         0.0000 
     36 N36        -0.0987   -5.3180    1.5406 N.am      1 UNK         0.0000 
     37 C37         0.7361   -5.7288    0.5663 C.2       1 UNK         0.0000 
     38 O38         1.9471   -5.5853    0.6428 O.2       1 UNK         0.0000 
     39 C39         0.2013   -6.4297   -0.7207 C.3       1 UNK         0.0000 
     40 H40         0.5762   -7.4548   -0.6628 H         1 UNK         0.0000 
     41 N41        -1.2923   -6.6088   -0.6449 N.4       1 UNK         0.0000 
     42 H42        -1.5239   -7.1836    0.1543 H         1 UNK         0.0000 
     43 H43        -1.6053   -7.0759   -1.4845 H         1 UNK         0.0000 
     44 H44        -1.7352   -5.7046   -0.5828 H         1 UNK         0.0000 
     45 C45         0.7100   -5.8136   -2.0583 C.3       1 UNK         0.0000 
     46 C46         0.0599   -4.4869   -2.5554 C.3       1 UNK         0.0000 
     47 C47         0.4404   -3.1952   -1.7812 C.3       1 UNK         0.0000 
     48 N48        -0.3290   -1.9792   -2.0886 N.am      1 UNK         0.0000 
     49 O49         0.3406   -0.8345   -2.0498 O.co2     1 UNK         0.0000 
     50 C50        -1.6596   -1.9012   -2.0815 C.2       1 UNK         0.0000 
     51 O51        -2.0506   -0.7392   -1.9331 O.co2     1 UNK         0.0000 
     52 H52        -0.3814    4.6082   -3.6333 H         1 UNK         0.0000 
     53 H53        -1.5019    5.1647   -2.4233 H         1 UNK         0.0000 
     54 H54         0.9170    5.7488   -2.0060 H         1 UNK         0.0000 
     55 H55         1.2565    4.0621   -1.7204 H         1 UNK         0.0000 
     56 H56        -0.5482    4.1814    0.1681 H         1 UNK         0.0000 
     57 H57        -0.6201    5.8844   -0.0887 H         1 UNK         0.0000 
     58 H58         0.4649    3.2028    2.2941 H         1 UNK         0.0000 
     59 H59         0.9644    2.1887    4.6515 H         1 UNK         0.0000 
     60 H60         2.2114   -1.0936    3.1597 H         1 UNK         0.0000 
     61 H61         3.7040   -0.2077    3.0078 H         1 UNK         0.0000 
     62 H62         2.9842   -0.4289    4.5918 H         1 UNK         0.0000 
     63 H63        -1.4708   -0.9490    3.0455 H         1 UNK         0.0000 
     64 H64         0.1644   -0.7291    3.4277 H         1 UNK         0.0000 
     65 H65        -0.8085   -2.6523    1.2779 H         1 UNK         0.0000 
     66 H66         0.8763   -2.3935    1.7045 H         1 UNK         0.0000 
     67 H67        -1.3395   -3.5777    3.4344 H         1 UNK         0.0000 
     68 H68         0.1832   -3.0764    4.1208 H         1 UNK         0.0000 
     69 H69        -1.0860   -5.5068    1.5660 H         1 UNK         0.0000 
     70 H70         1.7988   -5.6996   -2.0249 H         1 UNK         0.0000 
     71 H71         0.5660   -6.5637   -2.8389 H         1 UNK         0.0000 
     72 H72         0.3905   -4.3261   -3.5839 H         1 UNK         0.0000 
     73 H73        -1.0191   -4.6092   -2.6055 H         1 UNK         0.0000 
     74 H74         1.5122   -3.0044   -1.9007 H         1 UNK         0.0000 
     75 H75         0.3292   -3.3497   -0.7096 H         1 UNK         0.0000 
     76 H76         0.9840   -6.7994    5.2600 H         1 UNK         0.0000 
     77 H77        -2.2422   -2.8330   -2.1272 H         1 UNK         0.0000 
     78 H78        -3.0564    3.5929   -1.8553 H         1 UNK         0.0000 
@<TRIPOS>BOND
     1    1    2 nc   
     2    1    5 nc   
     3    1   25 nc   
     4    1   27 nc   
     5    1   49 nc   
     6    1   51 nc   
     7    2    3 2    
     8    3    4 am   BACKBONE|DICT|INTERRES
     9    3   78 1    
    10    4    5 1    
    11    4    6 1    
    12    6   53 1    
    13    6    7 1    
    14    6   52 1    
    15    7    8 1    
    16    7   54 1    
    17    7   55 1    
    18    8   57 1    
    19    8   56 1    
    20    8    9 1    
    21    9   15 1    
    22    9   10 1    
    23    9   11 1    
    24   11   14 1    
    25   11   12 1    
    26   11   13 1    
    27   15   17 am   BACKBONE|DICT|INTERRES
    28   15   16 2    
    29   17   18 1    
    30   17   58 1    
    31   18   19 1    
    32   18   20 1    
    33   18   24 1    
    34   20   23 1    
    35   20   21 1    
    36   20   22 1    
    37   22   59 1    
    38   23   62 1    
    39   23   60 1    
    40   23   61 1    
    41   24   25 2    
    42   24   26 am   BACKBONE|DICT|INTERRES
    43   26   28 1    
    44   26   27 1    
    45   28   63 1    
    46   28   64 1    
    47   28   29 1    
    48   29   30 1    
    49   29   65 1    
    50   29   66 1    
    51   30   67 1    
    52   30   68 1    
    53   30   31 1    
    54   31   32 1    
    55   31   33 1    
    56   31   36 1    
    57   33   35 2    
    58   33   34 1    
    59   34   76 1    
    60   36   37 am   BACKBONE|DICT|INTERRES
    61   36   69 1    
    62   37   38 2    
    63   37   39 1    
    64   39   41 1    
    65   39   40 1    
    66   39   45 1    
    67   41   44 1    
    68   41   42 1    
    69   41   43 1    
    70   45   46 1    
    71   45   70 1    
    72   45   71 1    
    73   46   73 1    
    74   46   47 1    
    75   46   72 1    
    76   47   75 1    
    77   47   48 1    
    78   47   74 1    
    79   48   50 am   BACKBONE|DICT|INTERRES
    80   48   49 1    
    81   50   51 2    
    82   50   77 1    
@<TRIPOS>SUBSTRUCTURE
     1 UNK         1 GROUP             0       ****    0 ROOT    
