@<TRIPOS>MOLECULE
054_A_c1
145   149    1
SMALL
USER_CHARGES


@<TRIPOS>ATOM
      1 Fe1        -0.9036    0.5143    2.8281 Fe        1 UNK         0.0000 
      2 O2         -1.4336   -0.6818    4.6471 O.co2     1 UNK         0.0000 
      3 C3         -1.2373   -0.0390    5.6729 C.2       1 UNK         0.0000 
      4 C4         -1.1595   -0.7614    7.0030 C.3       1 UNK         0.0000 
      5 N5         -1.0447    1.2826    5.4844 N.am      1 UNK         0.0000 
      6 O6         -1.1398    1.7721    4.2486 O.co2     1 UNK         0.0000 
      7 C7         -0.7116    2.2327    6.5642 C.3       1 UNK         0.0000 
      8 C8         -0.3296    3.6938    6.1812 C.3       1 UNK         0.0000 
      9 C9          1.0602    3.8621    5.5152 C.3       1 UNK         0.0000 
     10 C10         1.5907    5.3319    5.4678 C.3       1 UNK         0.0000 
     11 H11         0.8261    5.9168    4.9588 H         1 UNK         0.0000 
     12 C12         1.7589    5.9276    6.8883 C.2       1 UNK         0.0000 
     13 O13         2.6658    5.2193    7.6102 O.3       1 UNK         0.0000 
     14 O14         1.1425    6.8638    7.3387 O.2       1 UNK         0.0000 
     15 N15         2.8571    5.4471    4.7064 N.am      1 UNK         0.0000 
     16 C16         3.1360    6.4332    3.8299 C.2       1 UNK         0.0000 
     17 O17         2.3513    7.3449    3.5803 O.2       1 UNK         0.0000 
     18 C18         4.4770    6.3391    3.0518 C.3       1 UNK         0.0000 
     19 H19         4.5225    5.3337    2.6364 H         1 UNK         0.0000 
     20 C20         5.7081    6.4942    3.9691 C.3       1 UNK         0.0000 
     21 O21         5.7583    7.7240    4.6665 O.3       1 UNK         0.0000 
     22 N22         4.5890    7.3368    1.9642 N.am      1 UNK         0.0000 
     23 C23         4.4658    7.1940    0.6225 C.2       1 UNK         0.0000 
     24 O24         4.5847    8.1497   -0.1388 O.2       1 UNK         0.0000 
     25 C25         4.1091    5.8186    0.0291 C.3       1 UNK         0.0000 
     26 H26         4.8555    5.1473    0.4470 H         1 UNK         0.0000 
     27 C27         2.7067    5.4284    0.4999 C.3       1 UNK         0.0000 
     28 C28         2.5728    3.9248    0.7212 C.3       1 UNK         0.0000 
     29 C29         1.3701    3.6973    1.6248 C.3       1 UNK         0.0000 
     30 N30         1.0409    2.2949    1.8115 N.am      1 UNK         0.0000 
     31 O31        -0.1883    1.9850    1.3997 O.co2     1 UNK         0.0000 
     32 C32         1.6998    1.4427    2.6281 C.2       1 UNK         0.0000 
     33 O33         1.0605    0.4513    2.9658 O.co2     1 UNK         0.0000 
     34 C34         3.0907    1.6594    3.2213 C.3       1 UNK         0.0000 
     35 N35         4.1460    5.7346   -1.4335 N.am      1 UNK         0.0000 
     36 C36         4.7061    4.7138   -2.1029 C.2       1 UNK         0.0000 
     37 O37         5.4344    3.8788   -1.5662 O.2       1 UNK         0.0000 
     38 C38         4.4368    4.5663   -3.6176 C.3       1 UNK         0.0000 
     39 H39         5.4378    4.6000   -4.0454 H         1 UNK         0.0000 
     40 C40         3.5794    5.6820   -4.2901 C.3       1 UNK         0.0000 
     41 C41         3.3498    5.5235   -5.8216 C.3       1 UNK         0.0000 
     42 C42         4.6203    5.5818   -6.6642 C.2       1 UNK         0.0000 
     43 O43         5.4983    4.7393   -6.5588 O.2       1 UNK         0.0000 
     44 N44         4.7283    6.5580   -7.5524 N.am      1 UNK         0.0000 
     45 N45         3.8889    3.2338   -3.9086 N.am      1 UNK         0.0000 
     46 C46         2.6600    2.7874   -3.5767 C.2       1 UNK         0.0000 
     47 O47         1.8380    3.4817   -2.9783 O.2       1 UNK         0.0000 
     48 C48         2.2796    1.3703   -4.0562 C.3       1 UNK         0.0000 
     49 H49         2.9851    0.6803   -3.5858 H         1 UNK         0.0000 
     50 C50         2.4096    1.2514   -5.5958 C.3       1 UNK         0.0000 
     51 O51         2.1026   -0.0603   -6.0383 O.3       1 UNK         0.0000 
     52 N52         0.8935    1.0390   -3.6931 N.am      1 UNK         0.0000 
     53 C53         0.5463   -0.0794   -3.0391 C.2       1 UNK         0.0000 
     54 O54         1.3976   -0.8098   -2.5331 O.2       1 UNK         0.0000 
     55 C55        -0.9549   -0.5140   -3.0693 C.3       1 UNK         0.0000 
     56 H56        -0.9425   -1.4385   -3.6426 H         1 UNK         0.0000 
     57 C57        -1.9676    0.3981   -3.8354 C.3       1 UNK         0.0000 
     58 O58        -1.6539    0.5646   -5.2166 O.3       1 UNK         0.0000 
     59 N59        -1.5191   -0.9179   -1.7696 N.am      1 UNK         0.0000 
     60 C60        -1.2040   -2.0712   -1.1452 C.2       1 UNK         0.0000 
     61 O61        -0.3344   -2.8435   -1.5645 O.2       1 UNK         0.0000 
     62 C62        -2.1028   -2.5348    0.0339 C.3       1 UNK         0.0000 
     63 H63        -3.1245   -2.4666   -0.3184 H         1 UNK         0.0000 
     64 C64        -2.0145   -1.7414    1.3764 C.3       1 UNK         0.0000 
     65 H65        -2.3826   -2.4474    2.1329 H         1 UNK         0.0000 
     66 O66        -0.7781   -1.2292    1.8015 O.co2     1 UNK         0.0000 
     67 C67        -3.1011   -0.6375    1.5246 C.2       1 UNK         0.0000 
     68 O68        -2.5936    0.3600    2.1302 O.co2     1 UNK         0.0000 
     69 O69        -4.2869   -0.8300    1.1814 O.co2     1 UNK         0.0000 
     70 N70        -1.7929   -3.9387    0.2911 N.am      1 UNK         0.0000 
     71 C71        -2.5695   -4.9721   -0.0393 C.2       1 UNK         0.0000 
     72 O72        -3.6870   -4.8305   -0.5416 O.2       1 UNK         0.0000 
     73 C73        -2.0173   -6.3756    0.2283 C.3       1 UNK         0.0000 
     74 C74        -2.9882   -7.4793   -0.2434 C.3       1 UNK         0.0000 
     75 C75        -2.4190   -8.8841   -0.0325 C.3       1 UNK         0.0000 
     76 C76        -3.3105   -9.9586   -0.6116 C.2       1 UNK         0.0000 
     77 C77        -3.8153  -10.9769    0.0997 C.2       1 UNK         0.0000 
     78 C78        -4.6500  -12.0825   -0.4941 C.3       1 UNK         0.0000 
     79 C79        -6.0224  -12.2183    0.1730 C.3       1 UNK         0.0000 
     80 C80        -6.7768  -13.4159   -0.4180 C.3       1 UNK         0.0000 
     81 C81        -8.1441  -13.6315    0.2451 C.3       1 UNK         0.0000 
     82 C82        -8.8555  -14.8636   -0.3391 C.3       1 UNK         0.0000 
     83 C83       -10.2194  -15.1025    0.3215 C.3       1 UNK         0.0000 
     84 H84        -0.8986   -0.0963    7.8182 H         1 UNK         0.0000 
     85 H85        -2.1081   -1.2468    7.2297 H         1 UNK         0.0000 
     86 H86        -0.3974   -1.5340    6.9334 H         1 UNK         0.0000 
     87 H87        -1.5592    2.2643    7.2647 H         1 UNK         0.0000 
     88 H88         0.1321    1.7976    7.1140 H         1 UNK         0.0000 
     89 H89        -1.1089    4.1194    5.5449 H         1 UNK         0.0000 
     90 H90        -0.3665    4.2688    7.1055 H         1 UNK         0.0000 
     91 H91         0.9691    3.5016    4.4974 H         1 UNK         0.0000 
     92 H92         1.7907    3.2044    5.9942 H         1 UNK         0.0000 
     93 H93         3.5709    4.7779    4.9544 H         1 UNK         0.0000 
     94 H94         5.7144    5.6882    4.7048 H         1 UNK         0.0000 
     95 H95         6.6267    6.3870    3.3864 H         1 UNK         0.0000 
     96 H96         6.2036    8.3744    4.1157 H         1 UNK         0.0000 
     97 H97         4.6337    8.2858    2.3015 H         1 UNK         0.0000 
     98 H98         2.4345    5.9416    1.4154 H         1 UNK         0.0000 
     99 H99         1.9422    5.7798   -0.1972 H         1 UNK         0.0000 
    100 H100        2.4261    3.3959   -0.2233 H         1 UNK         0.0000 
    101 H101        3.4630    3.5090    1.1921 H         1 UNK         0.0000 
    102 H102        0.5201    4.2392    1.1848 H         1 UNK         0.0000 
    103 H103        1.4731    4.2120    2.5822 H         1 UNK         0.0000 
    104 H104        3.1148    2.5316    3.8800 H         1 UNK         0.0000 
    105 H105        3.3546    0.7969    3.8330 H         1 UNK         0.0000 
    106 H106        3.8615    1.7433    2.4480 H         1 UNK         0.0000 
    107 H107        3.5440    6.3861   -1.9128 H         1 UNK         0.0000 
    108 H108        2.5975    5.7340   -3.8093 H         1 UNK         0.0000 
    109 H109        4.0362    6.6554   -4.1045 H         1 UNK         0.0000 
    110 H110        2.6325    6.2759   -6.1684 H         1 UNK         0.0000 
    111 H111        2.8656    4.5703   -6.0327 H         1 UNK         0.0000 
    112 H112        4.0058    7.2559   -7.6608 H         1 UNK         0.0000 
    113 H113        5.5769    6.5962   -8.1023 H         1 UNK         0.0000 
    114 H114        4.5390    2.6206   -4.3788 H         1 UNK         0.0000 
    115 H115        3.4340    1.4624   -5.9018 H         1 UNK         0.0000 
    116 H116        1.7779    1.9867   -6.0967 H         1 UNK         0.0000 
    117 H117        2.0501   -0.0805   -6.9958 H         1 UNK         0.0000 
    118 H118        0.1702    1.6151   -4.0916 H         1 UNK         0.0000 
    119 H119       -2.0363    1.3788   -3.3686 H         1 UNK         0.0000 
    120 H120       -2.9708   -0.0327   -3.7686 H         1 UNK         0.0000 
    121 H121       -2.4101    0.9287   -5.6853 H         1 UNK         0.0000 
    122 H122       -2.2214   -0.3339   -1.3399 H         1 UNK         0.0000 
    123 H123       -0.8360   -4.0461    0.6017 H         1 UNK         0.0000 
    124 H124       -1.0568   -6.4852   -0.2834 H         1 UNK         0.0000 
    125 H125       -1.8242   -6.4835    1.2974 H         1 UNK         0.0000 
    126 H126       -3.2161   -7.3378   -1.3045 H         1 UNK         0.0000 
    127 H127       -3.9465   -7.3902    0.2769 H         1 UNK         0.0000 
    128 H128       -1.4506   -8.9733   -0.5319 H         1 UNK         0.0000 
    129 H129       -2.2759   -9.0692    1.0363 H         1 UNK         0.0000 
    130 H130       -3.5219   -9.8704   -1.6713 H         1 UNK         0.0000 
    131 H131       -3.6184  -11.0507    1.1626 H         1 UNK         0.0000 
    132 H132       -4.0772  -13.0071   -0.3741 H         1 UNK         0.0000 
    133 H133       -4.7724  -11.9053   -1.5674 H         1 UNK         0.0000 
    134 H134       -6.6005  -11.3001    0.0381 H         1 UNK         0.0000 
    135 H135       -5.9040  -12.3453    1.2530 H         1 UNK         0.0000 
    136 H136       -6.1711  -14.3194   -0.3015 H         1 UNK         0.0000 
    137 H137       -6.9085  -13.2760   -1.4950 H         1 UNK         0.0000 
    138 H138       -8.7647  -12.7396    0.1115 H         1 UNK         0.0000 
    139 H139       -8.0138  -13.7529    1.3253 H         1 UNK         0.0000 
    140 H140       -8.2222  -15.7474   -0.2124 H         1 UNK         0.0000 
    141 H141       -8.9808  -14.7387   -1.4192 H         1 UNK         0.0000 
    142 H142      -10.8833  -14.2477    0.1747 H         1 UNK         0.0000 
    143 H143      -10.7057  -15.9829   -0.1039 H         1 UNK         0.0000 
    144 H144      -10.1131  -15.2640    1.3965 H         1 UNK         0.0000 
    145 H145        2.6495    5.6474    8.4663 H         1 UNK         0.0000 
@<TRIPOS>BOND
     1    1    2 nc   
     2    1    6 nc   
     3    1   31 nc   
     4    1   33 nc   
     5    1   66 nc   
     6    1   68 nc   
     7    2    3 2    
     8    3    4 1    
     9    3    5 am   BACKBONE|DICT|INTERRES
    10    4   85 1    
    11    4   84 1    
    12    4   86 1    
    13    5    7 1    
    14    5    6 1    
    15    7   88 1    
    16    7   87 1    
    17    7    8 1    
    18    8   90 1    
    19    8    9 1    
    20    8   89 1    
    21    9   92 1    
    22    9   10 1    
    23    9   91 1    
    24   10   11 1    
    25   10   12 1    
    26   10   15 1    
    27   12   14 2    
    28   12   13 1    
    29   13  145 1    
    30   15   93 1    
    31   15   16 am   BACKBONE|DICT|INTERRES
    32   16   17 2    
    33   16   18 1    
    34   18   19 1    
    35   18   20 1    
    36   18   22 1    
    37   20   21 1    
    38   20   94 1    
    39   20   95 1    
    40   21   96 1    
    41   22   97 1    
    42   22   23 am   BACKBONE|DICT|INTERRES
    43   23   24 2    
    44   23   25 1    
    45   25   26 1    
    46   25   27 1    
    47   25   35 1    
    48   27   28 1    
    49   27   98 1    
    50   27   99 1    
    51   28  101 1    
    52   28   29 1    
    53   28  100 1    
    54   29   30 1    
    55   29  103 1    
    56   29  102 1    
    57   30   32 am   BACKBONE|DICT|INTERRES
    58   30   31 1    
    59   32   33 2    
    60   32   34 1    
    61   34  105 1    
    62   34  104 1    
    63   34  106 1    
    64   35   36 am   BACKBONE|DICT|INTERRES
    65   35  107 1    
    66   36   37 2    
    67   36   38 1    
    68   38   39 1    
    69   38   40 1    
    70   38   45 1    
    71   40  109 1    
    72   40  108 1    
    73   40   41 1    
    74   41   42 1    
    75   41  110 1    
    76   41  111 1    
    77   42   43 2    
    78   42   44 am   BACKBONE|DICT|INTERRES
    79   44  112 1    
    80   44  113 1    
    81   45   46 am   BACKBONE|DICT|INTERRES
    82   45  114 1    
    83   46   47 2    
    84   46   48 1    
    85   48   52 1    
    86   48   49 1    
    87   48   50 1    
    88   50   51 1    
    89   50  115 1    
    90   50  116 1    
    91   51  117 1    
    92   52   53 am   BACKBONE|DICT|INTERRES
    93   52  118 1    
    94   53   55 1    
    95   53   54 2    
    96   55   56 1    
    97   55   59 1    
    98   55   57 1    
    99   57  120 1    
   100   57  119 1    
   101   57   58 1    
   102   58  121 1    
   103   59  122 1    
   104   59   60 am   BACKBONE|DICT|INTERRES
   105   60   62 1    
   106   60   61 2    
   107   62   63 1    
   108   62   70 1    
   109   62   64 1    
   110   64   67 1    
   111   64   66 1    
   112   64   65 1    
   113   67   68 1    
   114   67   69 2    
   115   70  123 1    
   116   70   71 am   BACKBONE|DICT|INTERRES
   117   71   73 1    
   118   71   72 2    
   119   73  125 1    
   120   73   74 1    
   121   73  124 1    
   122   74   75 1    
   123   74  127 1    
   124   74  126 1    
   125   75  129 1    
   126   75   76 1    
   127   75  128 1    
   128   76   77 2    
   129   76  130 1    
   130   77  131 1    
   131   77   78 1    
   132   78  132 1    
   133   78   79 1    
   134   78  133 1    
   135   79  135 1    
   136   79   80 1    
   137   79  134 1    
   138   80  136 1    
   139   80   81 1    
   140   80  137 1    
   141   81  139 1    
   142   81   82 1    
   143   81  138 1    
   144   82  140 1    
   145   82   83 1    
   146   82  141 1    
   147   83  144 1    
   148   83  142 1    
   149   83  143 1    
@<TRIPOS>SUBSTRUCTURE
     1 UNK         1 GROUP             0       ****    0 ROOT    
