@<TRIPOS>MOLECULE
185_J11_c1
99   106    1
SMALL
USER_CHARGES


@<TRIPOS>ATOM
      1 Fe1        -0.0405    0.0434   -0.1095 Fe        1 UNK         0.0000 
      2 C2         -1.4615   -4.5053    1.6724 C.ar      1 UNK         0.0000 
      3 C3         -2.0925   -5.6685    2.1147 C.ar      1 UNK         0.0000 
      4 C4         -1.5639   -6.9168    1.8134 C.ar      1 UNK         0.0000 
      5 C5         -0.3946   -7.0027    1.0699 C.ar      1 UNK         0.0000 
      6 C6          0.2635   -5.8555    0.6396 C.ar      1 UNK         0.0000 
      7 F7          1.4533   -6.0453   -0.0003 F         1 UNK         0.0000 
      8 C8         -0.2760   -4.5672    0.9131 C.ar      1 UNK         0.0000 
      9 C9          0.4888   -3.2711    0.5645 C.3       1 UNK         0.0000 
     10 O10        -0.2493   -2.1248    0.2870 O.co2     1 UNK         0.0000 
     11 N11         1.3563   -3.4126   -0.5807 N.3       1 UNK         0.0000 
     12 C12         1.7161   -2.3601   -1.5288 C.3       1 UNK         0.0000 
     13 H13         2.4353   -2.9029   -2.1388 H         1 UNK         0.0000 
     14 C14         2.7244   -1.2264   -1.0041 C.3       1 UNK         0.0000 
     15 O15         2.1884   -0.2026   -0.2083 O.co2     1 UNK         0.0000 
     16 C16         0.5371   -2.1409   -2.6100 C.3       1 UNK         0.0000 
     17 C17        -1.0756   -1.7393   -2.4564 C.3       1 UNK         0.0000 
     18 C18        -2.0483   -0.3966   -2.7118 C.3       1 UNK         0.0000 
     19 C19        -1.8091    1.1470   -3.1836 C.3       1 UNK         0.0000 
     20 N20        -2.1639    2.3632   -2.4042 N.3       1 UNK         0.0000 
     21 C21        -1.5464    2.9620   -1.2160 C.3       1 UNK         0.0000 
     22 O22        -0.5409    2.1932   -0.5770 O.co2     1 UNK         0.0000 
     23 C23        -1.4967    4.5434   -1.1206 C.ar      1 UNK         0.0000 
     24 C24        -0.9020    5.2720   -0.0439 C.ar      1 UNK         0.0000 
     25 F25         0.1389    4.8423    0.6907 F         1 UNK         0.0000 
     26 C26        -1.3251    6.5503    0.3063 C.ar      1 UNK         0.0000 
     27 C27        -2.1533    7.2720   -0.5314 C.ar      1 UNK         0.0000 
     28 C28        -2.5409    6.7007   -1.7447 C.ar      1 UNK         0.0000 
     29 C29        -2.2296    5.3553   -2.0289 C.ar      1 UNK         0.0000 
     30 H30        -1.8873   -3.5433    1.9305 H         1 UNK         0.0000 
     31 H31        -2.9897   -5.6068    2.7001 H         1 UNK         0.0000 
     32 H32        -2.0473   -7.8222    2.1448 H         1 UNK         0.0000 
     33 H33         0.0273   -7.9726    0.8432 H         1 UNK         0.0000 
     34 H34         2.2088   -3.7698   -0.1964 H         1 UNK         0.0000 
     35 H35         3.5351   -1.7344   -0.4754 H         1 UNK         0.0000 
     36 H36         3.2312   -0.8287   -1.8873 H         1 UNK         0.0000 
     37 H37         1.0363   -1.7178   -3.4614 H         1 UNK         0.0000 
     38 H38         0.4450   -3.1739   -2.9545 H         1 UNK         0.0000 
     39 H39        -1.4633   -2.3827   -3.2460 H         1 UNK         0.0000 
     40 H40        -1.5474   -2.2825   -1.6318 H         1 UNK         0.0000 
     41 H41        -2.8376   -0.3748   -1.9641 H         1 UNK         0.0000 
     42 H42        -2.6536   -0.7405   -3.5512 H         1 UNK         0.0000 
     43 H43        -0.9605    1.3375   -3.8180 H         1 UNK         0.0000 
     44 H44        -2.5594    1.2859   -3.9691 H         1 UNK         0.0000 
     45 H45        -3.1077    2.2287   -2.0728 H         1 UNK         0.0000 
     46 H46        -0.9534    7.0081    1.2178 H         1 UNK         0.0000 
     47 H47        -2.4438    8.2769   -0.2779 H         1 UNK         0.0000 
     48 H48        -3.0901    7.3170   -2.4513 H         1 UNK         0.0000 
     49 H49        -2.6087    4.9159   -2.9518 H         1 UNK         0.0000 
     50 C50         1.4956   -1.6977    4.3473 C.ar      1 UNK         0.0000 
     51 C51         2.0344   -2.2813    5.4975 C.ar      1 UNK         0.0000 
     52 C52         1.4764   -2.0282    6.7532 C.ar      1 UNK         0.0000 
     53 C53         0.3668   -1.2020    6.8549 C.ar      1 UNK         0.0000 
     54 C54        -0.1837   -0.6257    5.7220 C.ar      1 UNK         0.0000 
     55 F55        -1.2796    0.1480    5.9167 F         1 UNK         0.0000 
     56 C56         0.3903   -0.8447    4.4361 C.ar      1 UNK         0.0000 
     57 C57        -0.1549   -0.1672    3.1904 C.2       1 UNK         0.0000 
     58 O58         0.3501   -0.1063    2.0466 O.co2     1 UNK         0.0000 
     59 N59        -1.2553    0.5361    3.3708 N.am      1 UNK         0.0000 
     60 C60        -1.7648    1.5015    2.4329 C.3       1 UNK         0.0000 
     61 H61        -2.4900    2.0444    3.0494 H         1 UNK         0.0000 
     62 C62        -2.7494    0.7975    1.3958 C.3       1 UNK         0.0000 
     63 O63        -2.2347    0.0649    0.2967 O.co2     1 UNK         0.0000 
     64 C64        -0.6707    2.6384    2.1146 C.3       1 UNK         0.0000 
     65 C65         0.9710    2.5716    1.8425 C.3       1 UNK         0.0000 
     66 C66         2.0219    2.6475    0.5498 C.3       1 UNK         0.0000 
     67 C67         1.8947    3.0800   -1.0063 C.3       1 UNK         0.0000 
     68 N68         2.0534    2.1686   -2.2040 N.am      1 UNK         0.0000 
     69 C69         1.2991    1.2192   -2.8267 C.2       1 UNK         0.0000 
     70 O70         0.5012    0.4219   -2.2265 O.co2     1 UNK         0.0000 
     71 C71         1.5457    1.0619   -4.3633 C.ar      1 UNK         0.0000 
     72 C72         0.9200    0.0603   -5.1655 C.ar      1 UNK         0.0000 
     73 F73        -0.2240   -0.5659   -4.8226 F         1 UNK         0.0000 
     74 C74         1.3925   -0.2870   -6.4240 C.ar      1 UNK         0.0000 
     75 C75         2.3080    0.5400   -7.0663 C.ar      1 UNK         0.0000 
     76 C76         2.7263    1.7157   -6.4403 C.ar      1 UNK         0.0000 
     77 C77         2.3768    1.9650   -5.0963 C.ar      1 UNK         0.0000 
     78 H78         1.9361   -1.9110    3.3820 H         1 UNK         0.0000 
     79 H79         2.8876   -2.9328    5.4302 H         1 UNK         0.0000 
     80 H80         1.9066   -2.4505    7.6535 H         1 UNK         0.0000 
     81 H81        -0.0782   -1.0061    7.8144 H         1 UNK         0.0000 
     82 H82        -1.8482    0.2750    4.1326 H         1 UNK         0.0000 
     83 H83        -3.4403    0.1552    1.9385 H         1 UNK         0.0000 
     84 H84        -3.3966    1.5932    1.0588 H         1 UNK         0.0000 
     85 H85        -1.2047    3.3836    1.5709 H         1 UNK         0.0000 
     86 H86        -0.6479    3.1213    3.0893 H         1 UNK         0.0000 
     87 H87         1.2537    3.4890    2.3609 H         1 UNK         0.0000 
     88 H88         1.4519    1.8622    2.5310 H         1 UNK         0.0000 
     89 H89         2.7879    1.8647    0.6492 H         1 UNK         0.0000 
     90 H90         2.6531    3.4729    0.8810 H         1 UNK         0.0000 
     91 H91         1.1246    3.8309   -1.1857 H         1 UNK         0.0000 
     92 H92         2.7974    3.6637   -1.1964 H         1 UNK         0.0000 
     93 H93         2.9078    2.3102   -2.7069 H         1 UNK         0.0000 
     94 H94         0.9911   -1.1499   -6.9400 H         1 UNK         0.0000 
     95 H95         2.5895    0.3147   -8.0941 H         1 UNK         0.0000 
     96 H96         3.3201    2.4085   -7.0308 H         1 UNK         0.0000 
     97 H97         2.7550    2.8704   -4.6431 H         1 UNK         0.0000 
     98 H98         1.1268   -3.0840    1.3973 H         1 UNK         0.0000 
     99 H99        -2.3864    2.8621   -0.5487 H         1 UNK         0.0000 
@<TRIPOS>BOND
     1    1   10 nc   
     2    1   15 nc   
     3    1   22 nc   
     4    1   58 nc   
     5    1   63 nc   
     6    1   70 nc   
     7    2   30 1    
     8    2    3 ar   
     9    2    8 ar   
    10    3   31 1    
    11    3    4 ar   
    12    4   32 1    
    13    4    5 ar   
    14    5    6 ar   
    15    5   33 1    
    16    6    8 ar   
    17    6    7 1    
    18    8    9 1    
    19    9   10 1    
    20    9   11 1    
    21    9   98 1    
    22   11   34 1    
    23   11   12 1    
    24   12   13 1    
    25   12   14 1    
    26   12   16 1    
    27   14   35 1    
    28   14   15 1    
    29   14   36 1    
    30   16   17 1    
    31   16   37 1    
    32   16   38 1    
    33   17   18 1    
    34   17   40 1    
    35   17   39 1    
    36   18   19 1    
    37   18   41 1    
    38   18   42 1    
    39   19   20 1    
    40   19   43 1    
    41   19   44 1    
    42   20   21 1    
    43   20   45 1    
    44   21   23 1    
    45   21   22 1    
    46   21   99 1    
    47   23   24 ar   
    48   23   29 ar   
    49   24   26 ar   
    50   24   25 1    
    51   26   46 1    
    52   26   27 ar   
    53   27   47 1    
    54   27   28 ar   
    55   28   29 ar   
    56   28   48 1    
    57   29   49 1    
    58   50   56 ar   
    59   50   51 ar   
    60   50   78 1    
    61   51   52 ar   
    62   51   79 1    
    63   52   53 ar   
    64   52   80 1    
    65   53   81 1    
    66   53   54 ar   
    67   54   55 1    
    68   54   56 ar   
    69   56   57 1    
    70   57   59 am   BACKBONE|DICT|INTERRES
    71   57   58 2    
    72   59   82 1    
    73   59   60 1    
    74   60   64 1    
    75   60   61 1    
    76   60   62 1    
    77   62   83 1    
    78   62   63 1    
    79   62   84 1    
    80   64   86 1    
    81   64   65 1    
    82   64   85 1    
    83   65   87 1    
    84   65   88 1    
    85   65   66 1    
    86   66   89 1    
    87   66   90 1    
    88   66   67 1    
    89   67   68 1    
    90   67   91 1    
    91   67   92 1    
    92   68   69 am   BACKBONE|DICT|INTERRES
    93   68   93 1    
    94   69   71 1    
    95   69   70 2    
    96   71   72 ar   
    97   71   77 ar   
    98   72   73 1    
    99   72   74 ar   
   100   74   75 ar   
   101   74   94 1    
   102   75   76 ar   
   103   75   95 1    
   104   76   77 ar   
   105   76   96 1    
   106   77   97 1    
@<TRIPOS>SUBSTRUCTURE
     1 UNK         1 GROUP             0       ****    0 ROOT    
