@<TRIPOS>MOLECULE
240_c1
52   56    1
SMALL
USER_CHARGES


@<TRIPOS>ATOM
      1 Fe1         0.9360    0.7003    1.1282 Fe        1 UNK         0.0000 
      2 O2         -0.8113    5.9391   -1.9403 O.3       1 UNK         0.0000 
      3 C3          0.3696    5.5467   -1.4198 C.2       1 UNK         0.0000 
      4 O4          1.4356    5.9207   -1.8929 O.2       1 UNK         0.0000 
      5 C5          0.1883    4.7237   -0.1516 C.3       1 UNK         0.0000 
      6 C6          0.3184    3.1977   -0.2794 C.3       1 UNK         0.0000 
      7 O7          0.0550    2.7589    1.0446 O.co2     1 UNK         0.0000 
      8 C8          1.8378    2.7922   -0.6772 C.2       1 UNK         0.0000 
      9 O9          2.4390    2.0808    0.1907 O.co2     1 UNK         0.0000 
     10 O10         2.3122    3.1287   -1.7826 O.co2     1 UNK         0.0000 
     11 C11        -0.8298    2.4928   -1.0850 C.3       1 UNK         0.0000 
     12 C12        -0.8020    2.3268   -2.6192 C.2       1 UNK         0.0000 
     13 O13        -0.8852    3.3128   -3.3505 O.2       1 UNK         0.0000 
     14 N14        -0.8839    1.1082   -3.1958 N.am      1 UNK         0.0000 
     15 C15        -0.7462   -0.2431   -2.6085 C.3       1 UNK         0.0000 
     16 H16        -1.2841   -0.2851   -1.6616 H         1 UNK         0.0000 
     17 C17         0.7690   -0.5043   -2.2863 C.2       1 UNK         0.0000 
     18 O18         1.1030   -0.1157   -1.1321 O.co2     1 UNK         0.0000 
     19 O19         1.3870   -1.1127   -3.1955 O.co2     1 UNK         0.0000 
     20 C20        -1.4016   -1.3630   -3.4764 C.3       1 UNK         0.0000 
     21 C21        -1.2845   -2.8237   -2.9394 C.3       1 UNK         0.0000 
     22 C22        -1.7159   -3.1000   -1.4682 C.3       1 UNK         0.0000 
     23 N23        -0.6105   -3.1324   -0.5073 N.am      1 UNK         0.0000 
     24 C24        -0.6590   -3.6046    0.7645 C.2       1 UNK         0.0000 
     25 O25        -1.6257   -4.2337    1.1841 O.2       1 UNK         0.0000 
     26 C26         0.5800   -3.3172    1.6777 C.3       1 UNK         0.0000 
     27 C27         0.7600   -1.8520    2.2490 C.3       1 UNK         0.0000 
     28 O28         0.3174   -1.0011    1.2380 O.co2     1 UNK         0.0000 
     29 C29         2.3053   -1.5076    2.5050 C.2       1 UNK         0.0000 
     30 O30         2.6747   -0.3670    2.0626 O.co2     1 UNK         0.0000 
     31 O31         3.0429   -2.3203    3.0967 O.co2     1 UNK         0.0000 
     32 C32        -0.0574   -1.5392    3.5983 C.3       1 UNK         0.0000 
     33 C33        -0.9957   -0.2941    3.7000 C.2       1 UNK         0.0000 
     34 O34        -0.7938    0.6930    2.9332 O.co2     1 UNK         0.0000 
     35 O35        -1.8462   -0.3370    4.6266 O.co2     1 UNK         0.0000 
     36 H36         0.9330    5.0526    0.5742 H         1 UNK         0.0000 
     37 H37        -0.7914    4.9398    0.2787 H         1 UNK         0.0000 
     38 H38        -1.0259    1.5267   -0.6359 H         1 UNK         0.0000 
     39 H39        -1.7368    3.0511   -0.8570 H         1 UNK         0.0000 
     40 H40        -0.8440    1.1126   -4.1991 H         1 UNK         0.0000 
     41 H41        -0.9259   -1.3240   -4.4560 H         1 UNK         0.0000 
     42 H42        -2.4439   -1.1153   -3.6580 H         1 UNK         0.0000 
     43 H43        -1.8751   -3.4574   -3.5956 H         1 UNK         0.0000 
     44 H44        -0.2579   -3.1753   -3.0766 H         1 UNK         0.0000 
     45 H45        -2.2395   -4.0586   -1.4341 H         1 UNK         0.0000 
     46 H46        -2.4516   -2.3601   -1.1457 H         1 UNK         0.0000 
     47 H47         0.1534   -2.4733   -0.6405 H         1 UNK         0.0000 
     48 H48         0.6375   -4.0521    2.4746 H         1 UNK         0.0000 
     49 H49         1.4398   -3.5448    1.0488 H         1 UNK         0.0000 
     50 H50         0.6242   -1.4089    4.4424 H         1 UNK         0.0000 
     51 H51        -0.6754   -2.4028    3.8411 H         1 UNK         0.0000 
     52 H52        -0.5056    6.2301   -2.7924 H         1 UNK         0.0000 
@<TRIPOS>BOND
     1    1    7 nc   
     2    1    9 nc   
     3    1   18 nc   
     4    1   28 nc   
     5    1   30 nc   
     6    1   34 nc   
     7    2    3 1    
     8    2   52 1    
     9    3    5 1    
    10    3    4 2    
    11    5   37 1    
    12    5   36 1    
    13    5    6 1    
    14    6    7 1    
    15    6    8 1    
    16    6   11 1    
    17    8    9 1    
    18    8   10 2    
    19   11   39 1    
    20   11   38 1    
    21   11   12 1    
    22   12   13 2    
    23   12   14 am   BACKBONE|DICT|INTERRES
    24   14   15 1    
    25   14   40 1    
    26   15   17 1    
    27   15   16 1    
    28   15   20 1    
    29   17   18 1    
    30   17   19 2    
    31   20   21 1    
    32   20   41 1    
    33   20   42 1    
    34   21   22 1    
    35   21   43 1    
    36   21   44 1    
    37   22   45 1    
    38   22   46 1    
    39   22   23 1    
    40   23   24 am   BACKBONE|DICT|INTERRES
    41   23   47 1    
    42   24   25 2    
    43   24   26 1    
    44   26   48 1    
    45   26   27 1    
    46   26   49 1    
    47   27   28 1    
    48   27   32 1    
    49   27   29 1    
    50   29   31 2    
    51   29   30 1    
    52   32   51 1    
    53   32   50 1    
    54   32   33 1    
    55   33   35 2    
    56   33   34 1    
@<TRIPOS>SUBSTRUCTURE
     1 UNK         1 GROUP             0       ****    0 ROOT    
