@<TRIPOS>MOLECULE
026_r4_c1
80   87    1
SMALL
USER_CHARGES


@<TRIPOS>ATOM
      1 Fe1        -1.9144    2.8858   -0.0628 Fe        1 UNK         0.0000 
      2 C2          2.6144    5.3525    0.3615 C.ar      1 UNK         0.0000 
      3 C3          1.8067    6.5014    0.2625 C.ar      1 UNK         0.0000 
      4 C4          0.4712    6.3834   -0.1279 C.ar      1 UNK         0.0000 
      5 C5         -0.0006    5.1065   -0.3987 C.ar      1 UNK         0.0000 
      6 O6         -1.2157    4.7241   -0.7899 O.co2     1 UNK         0.0000 
      7 C7          0.7240    4.0215   -0.3129 C.ar      1 UNK         0.0000 
      8 O8         -0.1463    3.0577   -0.6621 O.co2     1 UNK         0.0000 
      9 C9          2.1080    4.0487    0.0720 C.ar      1 UNK         0.0000 
     10 C10         3.0899    2.8956    0.2318 C.2       1 UNK         0.0000 
     11 O11         4.2215    3.1706    0.6119 O.2       1 UNK         0.0000 
     12 N12         2.8021    1.5820   -0.0015 N.am      1 UNK         0.0000 
     13 C13         3.8005    0.5295    0.2114 C.3       1 UNK         0.0000 
     14 C14         3.2337   -0.8839   -0.0496 C.3       1 UNK         0.0000 
     15 C15         2.1028   -1.1887    0.9594 C.3       1 UNK         0.0000 
     16 N16         1.3799   -2.4549    0.8352 N.am      1 UNK         0.0000 
     17 C17         0.8197   -2.8305   -0.3765 C.2       1 UNK         0.0000 
     18 O18         1.1002   -2.2073   -1.3896 O.2       1 UNK         0.0000 
     19 C19        -0.2814   -3.8944   -0.5572 C.3       1 UNK         0.0000 
     20 H20        -0.6896   -4.2589    0.4046 H         1 UNK         0.0000 
     21 C21         0.2500   -5.1257   -1.3283 C.3       1 UNK         0.0000 
     22 H22         1.0910   -5.5487   -0.7293 H         1 UNK         0.0000 
     23 C23        -0.8288   -6.2098   -1.4658 C.3       1 UNK         0.0000 
     24 O24         0.7112   -4.7488   -2.6001 O.3       1 UNK         0.0000 
     25 N25        -1.3629   -3.2220   -1.2812 N.am      1 UNK         0.0000 
     26 C26        -1.9202   -2.0925   -0.7572 C.2       1 UNK         0.0000 
     27 O27        -1.6582   -1.7905    0.3952 O.2       1 UNK         0.0000 
     28 C28        -2.7203   -1.1435   -1.5778 C.ar      1 UNK         0.0000 
     29 C29        -2.8070    0.2154   -1.2032 C.ar      1 UNK         0.0000 
     30 O30        -2.2496    0.8579   -0.1762 O.co2     1 UNK         0.0000 
     31 C31        -3.4562    1.1122   -1.9098 C.ar      1 UNK         0.0000 
     32 O32        -3.3303    2.3058   -1.3180 O.co2     1 UNK         0.0000 
     33 C33        -4.1235    0.7914   -3.0914 C.ar      1 UNK         0.0000 
     34 C34        -4.0719   -0.5427   -3.5317 C.ar      1 UNK         0.0000 
     35 C35        -3.3655   -1.5100   -2.7833 C.ar      1 UNK         0.0000 
     36 C36         1.1954   -3.2419    2.0588 C.3       1 UNK         0.0000 
     37 C37         0.1769   -2.6583    3.0873 C.3       1 UNK         0.0000 
     38 C38         0.6375   -1.6673    4.1938 C.3       1 UNK         0.0000 
     39 C39         0.8335   -0.1522    3.9283 C.3       1 UNK         0.0000 
     40 N40        -0.3333    0.5481    3.4137 N.am      1 UNK         0.0000 
     41 C41        -1.4949    0.6941    4.1155 C.2       1 UNK         0.0000 
     42 O42        -1.6225    0.1419    5.1992 O.2       1 UNK         0.0000 
     43 C43        -2.6178    1.5463    3.6216 C.ar      1 UNK         0.0000 
     44 C44        -2.5450    2.3904    2.4974 C.ar      1 UNK         0.0000 
     45 O45        -1.6188    2.7050    1.5734 O.co2     1 UNK         0.0000 
     46 C46        -3.4908    3.0987    2.0890 C.ar      1 UNK         0.0000 
     47 O47        -2.9259    3.6644    0.9962 O.co2     1 UNK         0.0000 
     48 C48        -4.7439    3.1734    2.6876 C.ar      1 UNK         0.0000 
     49 C49        -4.9325    2.3735    3.8313 C.ar      1 UNK         0.0000 
     50 C50        -3.8695    1.5602    4.3023 C.ar      1 UNK         0.0000 
     51 H51         3.6418    5.4991    0.6694 H         1 UNK         0.0000 
     52 H52         2.2198    7.4760    0.4881 H         1 UNK         0.0000 
     53 H53        -0.1692    7.2514   -0.2142 H         1 UNK         0.0000 
     54 H54         1.8782    1.3087   -0.3257 H         1 UNK         0.0000 
     55 H55         4.1709    0.5730    1.2596 H         1 UNK         0.0000 
     56 H56         4.6614    0.7030   -0.4706 H         1 UNK         0.0000 
     57 H57         2.9071   -0.8830   -1.1042 H         1 UNK         0.0000 
     58 H58         4.0361   -1.6443    0.0658 H         1 UNK         0.0000 
     59 H59         2.6033   -1.1684    1.9424 H         1 UNK         0.0000 
     60 H60         1.3374   -0.3903    0.9001 H         1 UNK         0.0000 
     61 H61        -0.4069   -7.0991   -1.9800 H         1 UNK         0.0000 
     62 H62        -1.6949   -5.8442   -2.0559 H         1 UNK         0.0000 
     63 H63        -1.1871   -6.5258   -0.4627 H         1 UNK         0.0000 
     64 H64         1.3392   -5.4574   -2.8997 H         1 UNK         0.0000 
     65 H65        -1.5740   -3.5046   -2.2482 H         1 UNK         0.0000 
     66 H66        -4.6490    1.5474   -3.6606 H         1 UNK         0.0000 
     67 H67        -4.5670   -0.8261   -4.4516 H         1 UNK         0.0000 
     68 H68        -3.3380   -2.5256   -3.1511 H         1 UNK         0.0000 
     69 H69         2.1720   -3.4604    2.5422 H         1 UNK         0.0000 
     70 H70         0.8287   -4.2496    1.7937 H         1 UNK         0.0000 
     71 H71        -0.0882   -3.5564    3.6908 H         1 UNK         0.0000 
     72 H72        -0.7691   -2.3380    2.6123 H         1 UNK         0.0000 
     73 H73         1.5712   -2.0677    4.6444 H         1 UNK         0.0000 
     74 H74        -0.1326   -1.7337    4.9893 H         1 UNK         0.0000 
     75 H75         1.6786    0.0460    3.2661 H         1 UNK         0.0000 
     76 H76         1.1259    0.3241    4.8897 H         1 UNK         0.0000 
     77 H77        -0.2238    1.0120    2.5035 H         1 UNK         0.0000 
     78 H78        -5.5312    3.7999    2.2888 H         1 UNK         0.0000 
     79 H79        -5.8858    2.3758    4.3436 H         1 UNK         0.0000 
     80 H80        -4.0315    0.9474    5.1797 H         1 UNK         0.0000 
@<TRIPOS>BOND
     1    1    6 nc   
     2    1    8 nc   
     3    1   30 nc   
     4    1   32 nc   
     5    1   45 nc   
     6    1   47 nc   
     7    2   51 1    
     8    2    3 ar   
     9    2    9 ar   
    10    3   52 1    
    11    3    4 ar   
    12    4    5 ar   
    13    4   53 1    
    14    5    7 ar   
    15    5    6 1    
    16    7    9 ar   
    17    7    8 1    
    18    9   10 1    
    19   10   11 2    
    20   10   12 am   BACKBONE|DICT|INTERRES
    21   12   13 1    
    22   12   54 1    
    23   13   55 1    
    24   13   14 1    
    25   13   56 1    
    26   14   58 1    
    27   14   15 1    
    28   14   57 1    
    29   15   59 1    
    30   15   16 1    
    31   15   60 1    
    32   16   36 1    
    33   16   17 am   BACKBONE|DICT|INTERRES
    34   17   18 2    
    35   17   19 1    
    36   19   20 1    
    37   19   21 1    
    38   19   25 1    
    39   21   22 1    
    40   21   23 1    
    41   21   24 1    
    42   23   63 1    
    43   23   61 1    
    44   23   62 1    
    45   24   64 1    
    46   25   26 am   BACKBONE|DICT|INTERRES
    47   25   65 1    
    48   26   27 2    
    49   26   28 1    
    50   28   29 ar   
    51   28   35 ar   
    52   29   30 1    
    53   29   31 ar   
    54   31   32 1    
    55   31   33 ar   
    56   33   34 ar   
    57   33   66 1    
    58   34   35 ar   
    59   34   67 1    
    60   35   68 1    
    61   36   69 1    
    62   36   37 1    
    63   36   70 1    
    64   37   71 1    
    65   37   38 1    
    66   37   72 1    
    67   38   73 1    
    68   38   74 1    
    69   38   39 1    
    70   39   76 1    
    71   39   40 1    
    72   39   75 1    
    73   40   41 am   BACKBONE|DICT|INTERRES
    74   40   77 1    
    75   41   42 2    
    76   41   43 1    
    77   43   50 ar   
    78   43   44 ar   
    79   44   45 1    
    80   44   46 ar   
    81   46   48 ar   
    82   46   47 1    
    83   48   49 ar   
    84   48   78 1    
    85   49   50 ar   
    86   49   79 1    
    87   50   80 1    
@<TRIPOS>SUBSTRUCTURE
     1 UNK         1 GROUP             0       ****    0 ROOT    
