@<TRIPOS>MOLECULE
128_c1
129   134    1
SMALL
USER_CHARGES


@<TRIPOS>ATOM
      1 Fe1         0.0572    3.5376   -0.4943 Fe        1 UNK         0.0000 
      2 O2          2.7326    4.3274   -8.4678 O.2       1 UNK         0.0000 
      3 C3          3.4343    3.8188   -7.6023 C.2       1 UNK         0.0000 
      4 O4          4.1816    2.6972   -7.7548 O.3       1 UNK         0.0000 
      5 C5          3.6340    4.4412   -6.2273 C.3       1 UNK         0.0000 
      6 C6          2.9758    3.6440   -5.1002 C.2       1 UNK         0.0000 
      7 C7          3.7981    2.4651   -4.5737 C.3       1 UNK         0.0000 
      8 C8          1.8023    4.0751   -4.5932 C.2       1 UNK         0.0000 
      9 C9          1.2101    3.6185   -3.3631 C.2       1 UNK         0.0000 
     10 O10         0.9513    4.4386   -2.4618 O.co2     1 UNK         0.0000 
     11 N11         1.0412    2.3045   -3.0488 N.am      1 UNK         0.0000 
     12 O12         0.9996    2.0318   -1.7615 O.co2     1 UNK         0.0000 
     13 C13         0.6388    1.1473   -3.8922 C.3       1 UNK         0.0000 
     14 C14        -0.1615    0.0465   -3.0808 C.3       1 UNK         0.0000 
     15 C15        -0.6193   -1.1770   -3.8543 C.3       1 UNK         0.0000 
     16 C16        -1.3040   -2.3433   -3.0626 C.3       1 UNK         0.0000 
     17 H17        -1.6468   -2.8785   -3.9505 H         1 UNK         0.0000 
     18 C18        -0.4052   -3.4716   -2.4834 C.2       1 UNK         0.0000 
     19 O19         0.6934   -3.1915   -2.0164 O.2       1 UNK         0.0000 
     20 N20        -0.8863   -4.7222   -2.6515 N.am      1 UNK         0.0000 
     21 C21        -0.2526   -6.0481   -2.5196 C.3       1 UNK         0.0000 
     22 H22        -0.6131   -6.5728   -3.4051 H         1 UNK         0.0000 
     23 C23         1.2977   -6.0652   -2.6665 C.3       1 UNK         0.0000 
     24 O24         2.0042   -5.8269   -1.4600 O.3       1 UNK         0.0000 
     25 C25        -0.8951   -6.8482   -1.3788 C.2       1 UNK         0.0000 
     26 O26        -2.1203   -6.9438   -1.3463 O.2       1 UNK         0.0000 
     27 N27        -0.0824   -7.4643   -0.5215 N.am      1 UNK         0.0000 
     28 C28        -0.4902   -8.0387    0.7574 C.3       1 UNK         0.0000 
     29 H29        -1.5526   -8.2884    0.7449 H         1 UNK         0.0000 
     30 C30         0.3022   -9.3485    0.9461 C.3       1 UNK         0.0000 
     31 O31         1.7040   -9.1247    0.8378 O.3       1 UNK         0.0000 
     32 C32        -0.2861   -7.0246    1.9123 C.2       1 UNK         0.0000 
     33 O33        -0.4526   -7.3935    3.0755 O.2       1 UNK         0.0000 
     34 N34         0.0969   -5.7856    1.5657 N.am      1 UNK         0.0000 
     35 C35         0.2752   -4.6724    2.4841 C.3       1 UNK         0.0000 
     36 C36        -1.0025   -3.8200    2.5214 C.2       1 UNK         0.0000 
     37 O37        -2.0953   -4.3565    2.6732 O.2       1 UNK         0.0000 
     38 N38        -0.8458   -2.4845    2.4974 N.am      1 UNK         0.0000 
     39 C39        -1.8245   -1.5581    3.0773 C.3       1 UNK         0.0000 
     40 H40        -2.1331   -2.0948    3.9783 H         1 UNK         0.0000 
     41 C41        -1.1969   -0.2894    3.7154 C.3       1 UNK         0.0000 
     42 C42        -0.5152    0.6628    2.7425 C.3       1 UNK         0.0000 
     43 C43         0.2560    1.8807    3.3767 C.3       1 UNK         0.0000 
     44 N44         0.7333    2.8618    2.3554 N.am      1 UNK         0.0000 
     45 O45         0.8536    2.3385    1.1613 O.co2     1 UNK         0.0000 
     46 C46         0.8667    4.2093    2.4307 C.2       1 UNK         0.0000 
     47 O47         0.7069    4.8533    1.3614 O.co2     1 UNK         0.0000 
     48 C48         1.4479    4.7501    3.6266 C.2       1 UNK         0.0000 
     49 C49         1.4847    6.0579    3.9708 C.2       1 UNK         0.0000 
     50 C50         2.4305    6.4600    5.1107 C.3       1 UNK         0.0000 
     51 C51         0.6828    7.1754    3.2522 C.3       1 UNK         0.0000 
     52 C52         0.5961    8.5365    3.9570 C.2       1 UNK         0.0000 
     53 O53         0.0099    8.4708    5.1758 O.3       1 UNK         0.0000 
     54 O54         0.9821    9.5810    3.4454 O.2       1 UNK         0.0000 
     55 C55        -3.2109   -1.4026    2.3800 C.2       1 UNK         0.0000 
     56 O56        -4.1923   -1.4166    3.1222 O.2       1 UNK         0.0000 
     57 N57        -3.4446   -1.3148    1.0533 N.am      1 UNK         0.0000 
     58 C58        -2.7599   -0.9194   -0.1878 C.3       1 UNK         0.0000 
     59 H59        -1.6814   -0.8570   -0.0515 H         1 UNK         0.0000 
     60 C60        -3.2079   -1.9685   -1.2530 C.2       1 UNK         0.0000 
     61 O61        -4.3108   -2.4924   -1.0860 O.2       1 UNK         0.0000 
     62 N62        -2.6449   -2.1823   -2.4631 N.am      1 UNK         0.0000 
     63 C63        -3.4046    0.4282   -0.6891 C.3       1 UNK         0.0000 
     64 C64        -3.8269    1.4987    0.3529 C.3       1 UNK         0.0000 
     65 C65        -3.8749    2.9784   -0.1941 C.3       1 UNK         0.0000 
     66 N66        -2.5850    3.6117   -0.5650 N.am      1 UNK         0.0000 
     67 O67        -1.5325    2.8293   -0.3962 O.co2     1 UNK         0.0000 
     68 C68        -2.3842    4.9353   -0.8384 C.2       1 UNK         0.0000 
     69 O69        -1.1803    5.2280   -0.8881 O.co2     1 UNK         0.0000 
     70 C70        -3.4963    5.8534   -1.0410 C.2       1 UNK         0.0000 
     71 C71        -3.4374    7.1215   -1.5576 C.2       1 UNK         0.0000 
     72 C72        -2.1576    7.8374   -2.0422 C.3       1 UNK         0.0000 
     73 C73        -4.7477    7.9276   -1.7141 C.3       1 UNK         0.0000 
     74 C74        -4.6464    9.3074   -2.4139 C.2       1 UNK         0.0000 
     75 O75        -4.5106    9.4612   -3.6269 O.2       1 UNK         0.0000 
     76 O76        -4.7040   10.3412   -1.5524 O.3       1 UNK         0.0000 
     77 H77         3.2547    5.4619   -6.2507 H         1 UNK         0.0000 
     78 H78         4.6953    4.5569   -6.0183 H         1 UNK         0.0000 
     79 H79         3.5042    2.1520   -3.5657 H         1 UNK         0.0000 
     80 H80         4.8613    2.7096   -4.5325 H         1 UNK         0.0000 
     81 H81         3.6514    1.6008   -5.2322 H         1 UNK         0.0000 
     82 H82         1.2593    4.8976   -5.0279 H         1 UNK         0.0000 
     83 H83         1.5326    0.6794   -4.3211 H         1 UNK         0.0000 
     84 H84         0.0771    1.4954   -4.7676 H         1 UNK         0.0000 
     85 H85        -1.0223    0.5359   -2.6268 H         1 UNK         0.0000 
     86 H86         0.4843   -0.3284   -2.2770 H         1 UNK         0.0000 
     87 H87        -1.2751   -0.8569   -4.6682 H         1 UNK         0.0000 
     88 H88         0.2828   -1.5908   -4.3202 H         1 UNK         0.0000 
     89 H89        -1.8658   -4.8031   -2.8862 H         1 UNK         0.0000 
     90 H90         1.6321   -5.3916   -3.4561 H         1 UNK         0.0000 
     91 H91         1.5902   -7.0620   -3.0066 H         1 UNK         0.0000 
     92 H92         2.8057   -5.3291   -1.6522 H         1 UNK         0.0000 
     93 H93         0.9203   -7.3083   -0.6058 H         1 UNK         0.0000 
     94 H94         0.0067  -10.0757    0.1877 H         1 UNK         0.0000 
     95 H95         0.0677   -9.8086    1.9098 H         1 UNK         0.0000 
     96 H96         2.1670   -9.8406    1.2824 H         1 UNK         0.0000 
     97 H97         0.2134   -5.5969    0.5812 H         1 UNK         0.0000 
     98 H98         0.4698   -5.0401    3.4927 H         1 UNK         0.0000 
     99 H99         1.1403   -4.0810    2.1915 H         1 UNK         0.0000 
    100 H100        0.0600   -2.0917    2.2966 H         1 UNK         0.0000 
    101 H101       -0.4785   -0.6101    4.4770 H         1 UNK         0.0000 
    102 H102       -1.9811    0.2556    4.2415 H         1 UNK         0.0000 
    103 H103        0.1926    0.0793    2.1437 H         1 UNK         0.0000 
    104 H104       -1.2650    1.0591    2.0604 H         1 UNK         0.0000 
    105 H105       -0.3532    2.3638    4.1499 H         1 UNK         0.0000 
    106 H106        1.1090    1.4918    3.9434 H         1 UNK         0.0000 
    107 H107        1.9454    4.0119    4.2192 H         1 UNK         0.0000 
    108 H108        3.0763    5.6262    5.3914 H         1 UNK         0.0000 
    109 H109        3.0874    7.2610    4.7655 H         1 UNK         0.0000 
    110 H110        1.8916    6.7835    6.0005 H         1 UNK         0.0000 
    111 H111        1.1176    7.3247    2.2689 H         1 UNK         0.0000 
    112 H112       -0.3312    6.8259    3.0857 H         1 UNK         0.0000 
    113 H113       -4.4058   -1.5301    0.8295 H         1 UNK         0.0000 
    114 H114       -3.3211   -2.6777   -3.0290 H         1 UNK         0.0000 
    115 H115       -4.3220    0.2213   -1.2306 H         1 UNK         0.0000 
    116 H116       -2.7550    0.8920   -1.4266 H         1 UNK         0.0000 
    117 H117       -4.8205    1.2374    0.7192 H         1 UNK         0.0000 
    118 H118       -3.2161    1.4491    1.2552 H         1 UNK         0.0000 
    119 H119       -4.5009    2.9744   -1.0851 H         1 UNK         0.0000 
    120 H120       -4.3857    3.5976    0.5516 H         1 UNK         0.0000 
    121 H121       -2.0167    8.7560   -1.4732 H         1 UNK         0.0000 
    122 H122       -1.2168    7.3104   -1.9548 H         1 UNK         0.0000 
    123 H123       -2.2214    8.0993   -3.1029 H         1 UNK         0.0000 
    124 H124       -5.2100    8.0785   -0.7334 H         1 UNK         0.0000 
    125 H125       -5.4480    7.3632   -2.3282 H         1 UNK         0.0000 
    126 H126        4.6436    2.5153   -6.9349 H         1 UNK         0.0000 
    127 H127        0.0470    9.3712    5.5095 H         1 UNK         0.0000 
    128 H128       -4.7508   11.1453   -2.0826 H         1 UNK         0.0000 
    129 H129       -4.4553    5.4454   -0.7671 H         1 UNK         0.0000 
@<TRIPOS>BOND
     1    1   10 nc   
     2    1   12 nc   
     3    1   45 nc   
     4    1   47 nc   
     5    1   67 nc   
     6    1   69 nc   
     7    2    3 2    
     8    3    5 1    
     9    3    4 1    
    10    4  126 1    
    11    5   78 1    
    12    5    6 1    
    13    5   77 1    
    14    6    7 1    
    15    6    8 2    
    16    7   80 1    
    17    7   79 1    
    18    7   81 1    
    19    8    9 1    
    20    8   82 1    
    21    9   11 am   BACKBONE|DICT|INTERRES
    22    9   10 2    
    23   11   12 1    
    24   11   13 1    
    25   13   14 1    
    26   13   83 1    
    27   13   84 1    
    28   14   85 1    
    29   14   86 1    
    30   14   15 1    
    31   15   16 1    
    32   15   87 1    
    33   15   88 1    
    34   16   17 1    
    35   16   18 1    
    36   16   62 1    
    37   18   19 2    
    38   18   20 am   BACKBONE|DICT|INTERRES
    39   20   21 1    
    40   20   89 1    
    41   21   22 1    
    42   21   25 1    
    43   21   23 1    
    44   23   24 1    
    45   23   90 1    
    46   23   91 1    
    47   24   92 1    
    48   25   26 2    
    49   25   27 am   BACKBONE|DICT|INTERRES
    50   27   28 1    
    51   27   93 1    
    52   28   29 1    
    53   28   30 1    
    54   28   32 1    
    55   30   31 1    
    56   30   95 1    
    57   30   94 1    
    58   31   96 1    
    59   32   33 2    
    60   32   34 am   BACKBONE|DICT|INTERRES
    61   34   35 1    
    62   34   97 1    
    63   35   36 1    
    64   35   98 1    
    65   35   99 1    
    66   36   37 2    
    67   36   38 am   BACKBONE|DICT|INTERRES
    68   38   39 1    
    69   38  100 1    
    70   39   41 1    
    71   39   40 1    
    72   39   55 1    
    73   41  102 1    
    74   41  101 1    
    75   41   42 1    
    76   42   43 1    
    77   42  103 1    
    78   42  104 1    
    79   43  106 1    
    80   43  105 1    
    81   43   44 1    
    82   44   45 1    
    83   44   46 am   BACKBONE|DICT|INTERRES
    84   46   48 1    
    85   46   47 2    
    86   48   49 2    
    87   48  107 1    
    88   49   50 1    
    89   49   51 1    
    90   50  108 1    
    91   50  110 1    
    92   50  109 1    
    93   51  112 1    
    94   51   52 1    
    95   51  111 1    
    96   52   53 1    
    97   52   54 2    
    98   53  127 1    
    99   55   56 2    
   100   55   57 am   BACKBONE|DICT|INTERRES
   101   57   58 1    
   102   57  113 1    
   103   58   59 1    
   104   58   60 1    
   105   58   63 1    
   106   60   61 2    
   107   60   62 am   BACKBONE|DICT|INTERRES
   108   62  114 1    
   109   63   64 1    
   110   63  115 1    
   111   63  116 1    
   112   64  118 1    
   113   64  117 1    
   114   64   65 1    
   115   65  120 1    
   116   65   66 1    
   117   65  119 1    
   118   66   68 am   BACKBONE|DICT|INTERRES
   119   66   67 1    
   120   68   69 2    
   121   68   70 1    
   122   70   71 2    
   123   70  129 1    
   124   71   72 1    
   125   71   73 1    
   126   72  122 1    
   127   72  121 1    
   128   72  123 1    
   129   73  124 1    
   130   73   74 1    
   131   73  125 1    
   132   74   76 1    
   133   74   75 2    
   134   76  128 1    
@<TRIPOS>SUBSTRUCTURE
     1 UNK         1 GROUP             0       ****    0 ROOT    
