@<TRIPOS>MOLECULE
185_J4_c1
99   106    1
SMALL
USER_CHARGES


@<TRIPOS>ATOM
      1 C1         -5.8471    2.9761    3.3079 C.ar      1 UNK         0.0000 
      2 C2         -4.9453    1.9622    3.6211 C.ar      1 UNK         0.0000 
      3 C3         -4.9733    0.7608    2.9125 C.ar      1 UNK         0.0000 
      4 C4         -5.9043    0.5810    1.8951 C.ar      1 UNK         0.0000 
      5 C5         -6.8090    1.5854    1.5743 C.ar      1 UNK         0.0000 
      6 O6         -7.6766    1.2948    0.5498 O.3       1 UNK         0.0000 
      7 C7         -6.7936    2.8150    2.2792 C.ar      1 UNK         0.0000 
      8 C8         -7.7400    3.9476    1.9165 C.2       1 UNK         0.0000 
      9 O9         -8.5700    3.8058    1.0274 O.2       1 UNK         0.0000 
     10 N10        -7.5873    5.1154    2.5759 N.am      1 UNK         0.0000 
     11 C11        -8.0867    6.4479    2.1831 C.3       1 UNK         0.0000 
     12 H12        -7.6573    7.1129    2.9331 H         1 UNK         0.0000 
     13 C13        -9.6359    6.6303    2.4852 C.3       1 UNK         0.0000 
     14 O14       -10.4233    7.7521    2.1367 O.co2     1 UNK         0.0000 
     15 C15        -7.3392    6.8972    0.8622 C.3       1 UNK         0.0000 
     16 C16        -7.8498    6.5652   -0.5668 C.3       1 UNK         0.0000 
     17 C17        -9.0125    7.4820   -0.9344 C.3       1 UNK         0.0000 
     18 C18        -9.4893    7.5759   -2.3894 C.3       1 UNK         0.0000 
     19 N19       -10.6293    8.4856   -2.3709 N.am      1 UNK         0.0000 
     20 C20       -11.9022    8.0938   -2.2907 C.2       1 UNK         0.0000 
     21 O21       -12.3960    7.2792   -3.0837 O.2       1 UNK         0.0000 
     22 C22       -12.6986    8.7009   -1.1316 C.ar      1 UNK         0.0000 
     23 C23       -12.1002    9.3878   -0.0267 C.ar      1 UNK         0.0000 
     24 O24       -10.8468    9.6669    0.0151 O.co2     1 UNK         0.0000 
     25 C25       -12.8951    9.7167    1.0990 C.ar      1 UNK         0.0000 
     26 O26       -12.3725   10.1649    2.1742 O.co2     1 UNK         0.0000 
     27 C27       -14.2674    9.4778    1.0804 C.ar      1 UNK         0.0000 
     28 C28       -14.8624    8.8802   -0.0269 C.ar      1 UNK         0.0000 
     29 C29       -14.0826    8.4813   -1.1054 C.ar      1 UNK         0.0000 
     30 H30        -5.7882    3.8962    3.8747 H         1 UNK         0.0000 
     31 H31        -4.2233    2.1110    4.4105 H         1 UNK         0.0000 
     32 H32        -4.2770   -0.0270    3.1440 H         1 UNK         0.0000 
     33 H33        -5.9280   -0.3486    1.3430 H         1 UNK         0.0000 
     34 H34        -7.5535    0.4407    0.1368 H         1 UNK         0.0000 
     35 H35        -7.0917    5.1281    3.4453 H         1 UNK         0.0000 
     36 H36        -9.7428    6.4189    3.5517 H         1 UNK         0.0000 
     37 H37       -10.1124    5.7387    2.0790 H         1 UNK         0.0000 
     38 H38        -6.3257    6.5072    0.9245 H         1 UNK         0.0000 
     39 H39        -7.1441    7.9617    0.9024 H         1 UNK         0.0000 
     40 H40        -7.0369    6.7394   -1.2704 H         1 UNK         0.0000 
     41 H41        -8.1320    5.5215   -0.6736 H         1 UNK         0.0000 
     42 H42        -8.7526    8.4926   -0.6055 H         1 UNK         0.0000 
     43 H43        -9.8736    7.1812   -0.3394 H         1 UNK         0.0000 
     44 H44        -9.7205    6.5757   -2.7760 H         1 UNK         0.0000 
     45 H45        -8.6843    7.9593   -3.0253 H         1 UNK         0.0000 
     46 H46       -10.5880    9.1441   -1.5673 H         1 UNK         0.0000 
     47 H47       -14.8712    9.7208    1.9477 H         1 UNK         0.0000 
     48 H48       -15.9191    8.6815   -0.0375 H         1 UNK         0.0000 
     49 H49       -14.5377    7.9559   -1.9303 H         1 UNK         0.0000 
     50 H50        -6.3363   11.5691    6.3654 H         1 UNK         0.0000 
     51 O51        -9.9722   12.0616    1.7530 O.co2     1 UNK         0.0000 
     52 H52        -4.8403   10.7135    4.6008 H         1 UNK         0.0000 
     53 O53        -8.6210   12.0827    7.4852 O.2       1 UNK         0.0000 
     54 C54        -6.7558   11.0998    5.4890 C.ar      1 UNK         0.0000 
     55 H55       -11.7693   12.6310    0.8694 H         1 UNK         0.0000 
     56 C56        -5.9067   10.6442    4.4869 C.ar      1 UNK         0.0000 
     57 C57       -10.8529   13.0538    1.3043 C.3       1 UNK         0.0000 
     58 H58       -11.8548   13.4902    5.7800 H         1 UNK         0.0000 
     59 H59       -10.4358   13.5969    0.4531 H         1 UNK         0.0000 
     60 H60       -11.3239   15.8684    4.4130 H         1 UNK         0.0000 
     61 C61        -9.0077   11.8132    6.3412 C.2       1 UNK         0.0000 
     62 C62       -10.8681   13.5150    6.2493 C.3       1 UNK         0.0000 
     63 C63        -8.1518   11.0561    5.3316 C.ar      1 UNK         0.0000 
     64 H64       -14.3189   19.6062    3.3009 H         1 UNK         0.0000 
     65 C65       -14.1860   18.5378    3.3573 C.ar      1 UNK         0.0000 
     66 C66       -14.6681   17.8199    4.4468 C.ar      1 UNK         0.0000 
     67 H67       -15.1934   18.3458    5.2278 H         1 UNK         0.0000 
     68 C68       -10.3275   15.4501    4.5076 C.3       1 UNK         0.0000 
     69 N69       -10.1139   12.3486    5.8087 N.am      1 UNK         0.0000 
     70 C70        -6.4364   10.1693    3.2935 C.ar      1 UNK         0.0000 
     71 C71       -13.5474   17.8672    2.3237 C.ar      1 UNK         0.0000 
     72 C72       -14.4573   16.4427    4.5471 C.ar      1 UNK         0.0000 
     73 C73       -10.1441   14.8540    5.9310 C.3       1 UNK         0.0000 
     74 H74       -11.0756   13.4433    7.3182 H         1 UNK         0.0000 
     75 O75       -14.9398   15.8615    5.6945 O.3       1 UNK         0.0000 
     76 H76       -13.1808   18.4033    1.4610 H         1 UNK         0.0000 
     77 H77       -15.5862   16.4029    6.1482 H         1 UNK         0.0000 
     78 C78       -11.2237   14.0975    2.3998 C.3       1 UNK         0.0000 
     79 C79       -13.3985   16.4856    2.3845 C.ar      1 UNK         0.0000 
     80 H80        -9.0782   14.7302    6.1368 H         1 UNK         0.0000 
     81 C81       -13.7828   15.7397    3.5159 C.ar      1 UNK         0.0000 
     82 H82        -5.7945    9.8787    2.4759 H         1 UNK         0.0000 
     83 H83        -9.6493   16.3000    4.4241 H         1 UNK         0.0000 
     84 C84       -10.0142   14.5151    3.3153 C.3       1 UNK         0.0000 
     85 H85        -9.4760   13.6414    3.6922 H         1 UNK         0.0000 
     86 C86        -8.6867   10.4592    4.1559 C.ar      1 UNK         0.0000 
     87 C87       -13.5462   14.2318    3.5931 C.2       1 UNK         0.0000 
     88 N88       -12.4349   13.6340    3.1060 N.am      1 UNK         0.0000 
     89 H89       -12.9961   16.0229    1.5050 H         1 UNK         0.0000 
     90 H90       -10.3189   11.8642    4.9220 H         1 UNK         0.0000 
     91 C91        -7.8117   10.0927    3.1095 C.ar      1 UNK         0.0000 
     92 H92       -11.4229   14.9633    1.7916 H         1 UNK         0.0000 
     93 O93       -14.4036   13.5303    4.1235 O.2       1 UNK         0.0000 
     94 H94       -12.4613   12.6172    3.1332 H         1 UNK         0.0000 
     95 H95       -10.4819   15.6008    6.6464 H         1 UNK         0.0000 
     96 O96        -9.9500   10.3077    3.9905 O.co2     1 UNK         0.0000 
     97 H97        -9.2667   15.0152    2.6910 H         1 UNK         0.0000 
     98 O98        -8.2422    9.7685    1.9567 O.co2     1 UNK         0.0000 
     99 Fe99      -10.3009    9.9404    2.0016 Fe        1 UNK         0.0000 
@<TRIPOS>BOND
     1    1    2 ar   
     2    1    7 ar   
     3    1   30 1    
     4    2    3 ar   
     5    2   31 1    
     6    3    4 ar   
     7    3   32 1    
     8    4    5 ar   
     9    4   33 1    
    10    5    6 1    
    11    5    7 ar   
    12    6   34 1    
    13    7    8 1    
    14    8    9 2    
    15    8   10 am   BACKBONE|DICT|INTERRES
    16   10   35 1    
    17   10   11 1    
    18   11   13 1    
    19   11   15 1    
    20   11   12 1    
    21   13   14 1    
    22   13   36 1    
    23   13   37 1    
    24   14   99 nc   
    25   15   16 1    
    26   15   38 1    
    27   15   39 1    
    28   16   17 1    
    29   16   40 1    
    30   16   41 1    
    31   17   18 1    
    32   17   42 1    
    33   17   43 1    
    34   18   19 1    
    35   18   44 1    
    36   18   45 1    
    37   19   20 am   BACKBONE|DICT|INTERRES
    38   19   46 1    
    39   20   21 2    
    40   20   22 1    
    41   22   23 ar   
    42   22   29 ar   
    43   23   24 1    
    44   23   25 ar   
    45   24   99 nc   
    46   25   26 1    
    47   25   27 ar   
    48   26   99 nc   
    49   27   28 ar   
    50   27   47 1    
    51   28   29 ar   
    52   28   48 1    
    53   29   49 1    
    54   50   54 1    
    55   51   57 1    
    56   51   99 nc   
    57   52   56 1    
    58   53   61 2    
    59   54   56 ar   
    60   54   63 ar   
    61   55   57 1    
    62   56   70 ar   
    63   57   59 1    
    64   57   78 1    
    65   58   62 1    
    66   60   68 1    
    67   61   63 1    
    68   61   69 am   BACKBONE|DICT|INTERRES
    69   62   69 1    
    70   62   74 1    
    71   62   73 1    
    72   63   86 ar   
    73   64   65 1    
    74   65   66 ar   
    75   65   71 ar   
    76   66   72 ar   
    77   66   67 1    
    78   68   73 1    
    79   68   83 1    
    80   68   84 1    
    81   69   90 1    
    82   70   82 1    
    83   70   91 ar   
    84   71   76 1    
    85   71   79 ar   
    86   72   75 1    
    87   72   81 ar   
    88   73   95 1    
    89   73   80 1    
    90   75   77 1    
    91   78   84 1    
    92   78   92 1    
    93   78   88 1    
    94   79   81 ar   
    95   79   89 1    
    96   81   87 1    
    97   84   97 1    
    98   84   85 1    
    99   86   96 1    
   100   86   91 ar   
   101   87   93 2    
   102   87   88 am   BACKBONE|DICT|INTERRES
   103   88   94 1    
   104   91   98 1    
   105   96   99 nc   
   106   98   99 nc   
@<TRIPOS>SUBSTRUCTURE
     1 UNK         1 GROUP             0       ****    0 ROOT    
