@<TRIPOS>MOLECULE
014_c1
100   105    1
SMALL
USER_CHARGES


@<TRIPOS>ATOM
      1 Fe1        -0.0078   -0.2784    0.5414 Fe        1 UNK         0.0000 
      2 C2         -2.5127    4.5204   -2.7183 C.ar      1 UNK         0.0000 
      3 C3         -2.7429    5.4189   -3.7620 C.ar      1 UNK         0.0000 
      4 C4         -2.6386    4.9904   -5.0856 C.ar      1 UNK         0.0000 
      5 C5         -2.3188    3.6582   -5.3668 C.ar      1 UNK         0.0000 
      6 C6         -2.0895    2.7532   -4.3227 C.ar      1 UNK         0.0000 
      7 C7         -2.1547    3.1856   -2.9884 C.ar      1 UNK         0.0000 
      8 C8         -1.9701    2.2239   -1.8491 C.3       1 UNK         0.0000 
      9 C9         -0.7158    1.4104   -1.5267 C.2       1 UNK         0.0000 
     10 O10        -0.8354    0.5636   -0.6562 O.co2     1 UNK         0.0000 
     11 N11         0.5422    1.3090   -1.9098 N.am      1 UNK         0.0000 
     12 O12         0.8848    0.2141   -1.1933 O.co2     1 UNK         0.0000 
     13 C13         1.5143    1.9292   -2.8304 C.3       1 UNK         0.0000 
     14 C14         1.2397    3.1852   -3.6898 C.3       1 UNK         0.0000 
     15 C15         1.7034    4.6094   -3.2575 C.3       1 UNK         0.0000 
     16 C16         0.8676    5.3913   -2.2412 C.3       1 UNK         0.0000 
     17 C17         1.2260    5.1456   -0.7840 C.3       1 UNK         0.0000 
     18 N18         0.2483    5.8233    0.0706 N.am      1 UNK         0.0000 
     19 C19        -0.4955    5.1865    1.0257 C.2       1 UNK         0.0000 
     20 O20        -1.3278    5.8109    1.6666 O.2       1 UNK         0.0000 
     21 C21        -0.2541    3.7422    1.3030 C.3       1 UNK         0.0000 
     22 C22        -1.1070    3.0142    2.3451 C.3       1 UNK         0.0000 
     23 C23        -0.4746    1.6537    2.3872 C.2       1 UNK         0.0000 
     24 O24        -0.5277    0.8027    1.5095 O.co2     1 UNK         0.0000 
     25 N25         0.5981    1.3796    3.0091 N.am      1 UNK         0.0000 
     26 O26         0.8866    0.2910    2.2951 O.co2     1 UNK         0.0000 
     27 C27         0.9087    1.6851    4.3980 C.3       1 UNK         0.0000 
     28 C28         0.1384    0.6973    5.2768 C.3       1 UNK         0.0000 
     29 C29         0.2133    0.9317    6.7911 C.3       1 UNK         0.0000 
     30 C30        -0.6639   -0.0795    7.5831 C.3       1 UNK         0.0000 
     31 C31        -0.0985   -1.5187    7.7264 C.3       1 UNK         0.0000 
     32 N32         0.1999   -2.1561    6.4570 N.am      1 UNK         0.0000 
     33 C33        -0.7254   -2.4487    5.5000 C.2       1 UNK         0.0000 
     34 O34        -1.9157   -2.2681    5.7053 O.2       1 UNK         0.0000 
     35 C35        -0.2209   -2.8727    4.1346 C.3       1 UNK         0.0000 
     36 C36        -1.2900   -2.9264    3.0242 C.3       1 UNK         0.0000 
     37 C37        -0.6472   -2.5538    1.7128 C.2       1 UNK         0.0000 
     38 O38        -0.8625   -1.5495    1.0602 O.co2     1 UNK         0.0000 
     39 N39         0.2924   -3.0539    1.0635 N.am      1 UNK         0.0000 
     40 O40         0.4077   -1.9925    0.2329 O.co2     1 UNK         0.0000 
     41 C41         1.0558   -4.2758    1.1849 C.3       1 UNK         0.0000 
     42 C42         0.6727   -5.1948    0.0259 C.3       1 UNK         0.0000 
     43 C43         1.3653   -6.5564    0.1185 C.3       1 UNK         0.0000 
     44 C44         0.7892   -7.5163   -0.9297 C.3       1 UNK         0.0000 
     45 C45         1.4757   -8.8868   -0.8623 C.3       1 UNK         0.0000 
     46 N46         0.8882   -9.8206   -1.8074 N.am      1 UNK         0.0000 
     47 C47        -0.3814  -10.3044   -1.6841 C.2       1 UNK         0.0000 
     48 O48        -1.0901   -9.9673   -0.7471 O.2       1 UNK         0.0000 
     49 C49        -0.9291  -11.2788   -2.6846 C.3       1 UNK         0.0000 
     50 H50        -2.6069    4.8720   -1.6971 H         1 UNK         0.0000 
     51 H51        -3.0042    6.4464   -3.5414 H         1 UNK         0.0000 
     52 H52        -2.8166    5.6890   -5.8931 H         1 UNK         0.0000 
     53 H53        -2.2514    3.3268   -6.3940 H         1 UNK         0.0000 
     54 H54        -1.8514    1.7222   -4.5510 H         1 UNK         0.0000 
     55 H55        -2.2418    2.7373   -0.9023 H         1 UNK         0.0000 
     56 H56        -2.7685    1.4676   -2.0140 H         1 UNK         0.0000 
     57 H57         2.4632    2.1256   -2.2857 H         1 UNK         0.0000 
     58 H58         1.7448    1.1145   -3.5527 H         1 UNK         0.0000 
     59 H59         1.9188    3.0241   -4.5593 H         1 UNK         0.0000 
     60 H60         0.2545    3.1825   -4.1408 H         1 UNK         0.0000 
     61 H61         2.7821    4.6373   -2.9880 H         1 UNK         0.0000 
     62 H62         1.6017    5.2021   -4.1954 H         1 UNK         0.0000 
     63 H63         1.0329    6.4799   -2.4049 H         1 UNK         0.0000 
     64 H64        -0.1864    5.1920   -2.4419 H         1 UNK         0.0000 
     65 H65         2.2406    5.5525   -0.5860 H         1 UNK         0.0000 
     66 H66         1.2832    4.0561   -0.6200 H         1 UNK         0.0000 
     67 H67         0.1058    6.8362   -0.0675 H         1 UNK         0.0000 
     68 H68        -0.3961    3.1976    0.3557 H         1 UNK         0.0000 
     69 H69         0.8146    3.6762    1.6163 H         1 UNK         0.0000 
     70 H70        -2.1666    2.9555    2.0172 H         1 UNK         0.0000 
     71 H71        -1.0493    3.5194    3.3305 H         1 UNK         0.0000 
     72 H72         1.9998    1.5784    4.5782 H         1 UNK         0.0000 
     73 H73         0.6186    2.7297    4.6350 H         1 UNK         0.0000 
     74 H74        -0.9353    0.7274    4.9852 H         1 UNK         0.0000 
     75 H75         0.5657   -0.2752    5.0314 H         1 UNK         0.0000 
     76 H76        -0.2041    1.9471    6.9732 H         1 UNK         0.0000 
     77 H77         1.2604    0.9160    7.1606 H         1 UNK         0.0000 
     78 H78        -1.6843   -0.0987    7.1441 H         1 UNK         0.0000 
     79 H79        -0.7684    0.3097    8.6191 H         1 UNK         0.0000 
     80 H80         0.8459   -1.4415    8.3087 H         1 UNK         0.0000 
     81 H81        -0.8047   -2.1485    8.3092 H         1 UNK         0.0000 
     82 H82         1.1949   -2.3379    6.2514 H         1 UNK         0.0000 
     83 H83         0.4976   -2.0761    3.8539 H         1 UNK         0.0000 
     84 H84         0.3599   -3.8168    4.1839 H         1 UNK         0.0000 
     85 H85        -1.8202   -3.9014    3.0107 H         1 UNK         0.0000 
     86 H86        -2.0357   -2.1206    3.2010 H         1 UNK         0.0000 
     87 H87         0.7744   -4.7972    2.1238 H         1 UNK         0.0000 
     88 H88         2.1427   -4.0492    1.2142 H         1 UNK         0.0000 
     89 H89        -0.4284   -5.3512    0.0833 H         1 UNK         0.0000 
     90 H90         0.9100   -4.7134   -0.9481 H         1 UNK         0.0000 
     91 H91         2.4600   -6.4246   -0.0240 H         1 UNK         0.0000 
     92 H92         1.1838   -6.9950    1.1249 H         1 UNK         0.0000 
     93 H93         0.9211   -7.0930   -1.9495 H         1 UNK         0.0000 
     94 H94        -0.2984   -7.6250   -0.7341 H         1 UNK         0.0000 
     95 H95         2.5497   -8.7414   -1.1127 H         1 UNK         0.0000 
     96 H96         1.4140   -9.3150    0.1620 H         1 UNK         0.0000 
     97 H97         1.4776  -10.1494   -2.5872 H         1 UNK         0.0000 
     98 H98        -1.8408  -10.8547   -3.1559 H         1 UNK         0.0000 
     99 H99        -1.1943  -12.2266   -2.1716 H         1 UNK         0.0000 
    100 H100       -0.1894  -11.5023   -3.4814 H         1 UNK         0.0000 
@<TRIPOS>BOND
     1    1   10 nc   
     2    1   12 nc   
     3    1   24 nc   
     4    1   26 nc   
     5    1   38 nc   
     6    1   40 nc   
     7    2   50 1    
     8    2    3 ar   
     9    2    7 ar   
    10    3   51 1    
    11    3    4 ar   
    12    4    5 ar   
    13    4   52 1    
    14    5    6 ar   
    15    5   53 1    
    16    6    7 ar   
    17    6   54 1    
    18    7    8 1    
    19    8   55 1    
    20    8    9 1    
    21    8   56 1    
    22    9   10 2    
    23    9   11 am   BACKBONE|DICT|INTERRES
    24   11   12 1    
    25   11   13 1    
    26   13   57 1    
    27   13   14 1    
    28   13   58 1    
    29   14   15 1    
    30   14   59 1    
    31   14   60 1    
    32   15   61 1    
    33   15   16 1    
    34   15   62 1    
    35   16   17 1    
    36   16   63 1    
    37   16   64 1    
    38   17   66 1    
    39   17   65 1    
    40   17   18 1    
    41   18   19 am   BACKBONE|DICT|INTERRES
    42   18   67 1    
    43   19   21 1    
    44   19   20 2    
    45   21   69 1    
    46   21   22 1    
    47   21   68 1    
    48   22   23 1    
    49   22   71 1    
    50   22   70 1    
    51   23   25 am   BACKBONE|DICT|INTERRES
    52   23   24 2    
    53   25   27 1    
    54   25   26 1    
    55   27   72 1    
    56   27   73 1    
    57   27   28 1    
    58   28   29 1    
    59   28   74 1    
    60   28   75 1    
    61   29   76 1    
    62   29   77 1    
    63   29   30 1    
    64   30   31 1    
    65   30   79 1    
    66   30   78 1    
    67   31   80 1    
    68   31   81 1    
    69   31   32 1    
    70   32   33 am   BACKBONE|DICT|INTERRES
    71   32   82 1    
    72   33   34 2    
    73   33   35 1    
    74   35   84 1    
    75   35   36 1    
    76   35   83 1    
    77   36   86 1    
    78   36   37 1    
    79   36   85 1    
    80   37   38 2    
    81   37   39 am   BACKBONE|DICT|INTERRES
    82   39   41 1    
    83   39   40 1    
    84   41   88 1    
    85   41   87 1    
    86   41   42 1    
    87   42   89 1    
    88   42   43 1    
    89   42   90 1    
    90   43   92 1    
    91   43   44 1    
    92   43   91 1    
    93   44   45 1    
    94   44   94 1    
    95   44   93 1    
    96   45   96 1    
    97   45   46 1    
    98   45   95 1    
    99   46   47 am   BACKBONE|DICT|INTERRES
   100   46   97 1    
   101   47   48 2    
   102   47   49 1    
   103   49   99 1    
   104   49   98 1    
   105   49  100 1    
@<TRIPOS>SUBSTRUCTURE
     1 UNK         1 GROUP             0       ****    0 ROOT    
