@<TRIPOS>MOLECULE
026_r1_c1
80   87    1
SMALL
USER_CHARGES


@<TRIPOS>ATOM
      1 Fe1        -1.5304   -3.1456    0.1162 Fe        1 UNK         0.0000 
      2 C2          2.4684   -4.6673    3.4509 C.ar      1 UNK         0.0000 
      3 C3          1.7751   -5.8922    3.4326 C.ar      1 UNK         0.0000 
      4 C4          0.6724   -6.0530    2.5890 C.ar      1 UNK         0.0000 
      5 C5          0.2991   -4.9618    1.8103 C.ar      1 UNK         0.0000 
      6 O6         -0.6998   -4.8519    0.9421 O.co2     1 UNK         0.0000 
      7 C7          0.9071   -3.8177    1.8239 C.ar      1 UNK         0.0000 
      8 O8          0.1694   -3.0717    0.9927 O.co2     1 UNK         0.0000 
      9 C9          2.0653   -3.5749    2.6287 C.ar      1 UNK         0.0000 
     10 C10         2.9151   -2.3265    2.6835 C.2       1 UNK         0.0000 
     11 O11         3.7850   -2.2629    3.5434 O.2       1 UNK         0.0000 
     12 N12         2.8133   -1.3014    1.7924 N.am      1 UNK         0.0000 
     13 C13         3.7263   -0.1703    1.8091 C.3       1 UNK         0.0000 
     14 C14         3.3628    0.8451    0.7140 C.3       1 UNK         0.0000 
     15 C15         2.0777    1.6242    1.0755 C.3       1 UNK         0.0000 
     16 N16         1.5857    2.5719    0.0571 N.am      1 UNK         0.0000 
     17 C17         0.6166    3.5049    0.3898 C.2       1 UNK         0.0000 
     18 O18         0.2295    4.2850   -0.4687 O.2       1 UNK         0.0000 
     19 C19         0.0409    3.6533    1.8235 C.3       1 UNK         0.0000 
     20 H20         0.9280    3.7892    2.4772 H         1 UNK         0.0000 
     21 C21        -0.8360    4.9199    2.0507 C.3       1 UNK         0.0000 
     22 H22        -1.1162    4.9370    3.1275 H         1 UNK         0.0000 
     23 C23        -0.0960    6.2500    1.8155 C.3       1 UNK         0.0000 
     24 O24        -2.0378    4.8501    1.3200 O.3       1 UNK         0.0000 
     25 N25        -0.7146    2.5023    2.3388 N.am      1 UNK         0.0000 
     26 C26        -1.2246    1.4606    1.6134 C.2       1 UNK         0.0000 
     27 O27        -1.0689    1.4457    0.4080 O.2       1 UNK         0.0000 
     28 C28        -1.9975    0.3338    2.2474 C.ar      1 UNK         0.0000 
     29 C29        -2.3514   -0.8262    1.5154 C.ar      1 UNK         0.0000 
     30 O30        -2.0613   -1.1774    0.2570 O.co2     1 UNK         0.0000 
     31 C31        -3.0436   -1.8263    2.0320 C.ar      1 UNK         0.0000 
     32 O32        -3.2045   -2.7756    1.0923 O.co2     1 UNK         0.0000 
     33 C33        -3.4750   -1.8334    3.3545 C.ar      1 UNK         0.0000 
     34 C34        -3.1476   -0.7264    4.1509 C.ar      1 UNK         0.0000 
     35 C35        -2.4161    0.3515    3.6067 C.ar      1 UNK         0.0000 
     36 C36         2.1572    2.5776   -1.3028 C.3       1 UNK         0.0000 
     37 C37         1.4593    1.5842   -2.2616 C.3       1 UNK         0.0000 
     38 C38         0.0794    2.0942   -2.7058 C.3       1 UNK         0.0000 
     39 C39        -0.5989    1.2486   -3.7981 C.3       1 UNK         0.0000 
     40 N40        -1.0644   -0.0521   -3.3341 N.am      1 UNK         0.0000 
     41 C41        -1.8557   -0.8288   -4.1346 C.2       1 UNK         0.0000 
     42 O42        -2.1280   -0.4241   -5.2583 O.2       1 UNK         0.0000 
     43 C43        -2.4939   -2.1162   -3.6884 C.ar      1 UNK         0.0000 
     44 C44        -2.1906   -2.8673   -2.5220 C.ar      1 UNK         0.0000 
     45 O45        -1.3064   -2.8388   -1.5167 O.co2     1 UNK         0.0000 
     46 C46        -2.7700   -3.8825   -2.1983 C.ar      1 UNK         0.0000 
     47 O47        -2.0796   -4.1580   -1.0701 O.co2     1 UNK         0.0000 
     48 C48        -3.8098   -4.4902   -2.8956 C.ar      1 UNK         0.0000 
     49 C49        -4.2097   -3.8494   -4.0809 C.ar      1 UNK         0.0000 
     50 C50        -3.5501   -2.6618   -4.4816 C.ar      1 UNK         0.0000 
     51 H51         3.3288   -4.5890    4.1034 H         1 UNK         0.0000 
     52 H52         2.1006   -6.7109    4.0613 H         1 UNK         0.0000 
     53 H53         0.1277   -6.9872    2.5488 H         1 UNK         0.0000 
     54 H54         2.1395   -1.3315    1.0326 H         1 UNK         0.0000 
     55 H55         3.7195    0.3331    2.8012 H         1 UNK         0.0000 
     56 H56         4.7514   -0.5547    1.6156 H         1 UNK         0.0000 
     57 H57         3.2655    0.2971   -0.2478 H         1 UNK         0.0000 
     58 H58         4.1937    1.5789    0.6295 H         1 UNK         0.0000 
     59 H59         1.2756    0.9030    1.3139 H         1 UNK         0.0000 
     60 H60         2.3407    2.1792    1.9997 H         1 UNK         0.0000 
     61 H61         0.8047    6.3032    2.4629 H         1 UNK         0.0000 
     62 H62         0.2189    6.3788    0.7615 H         1 UNK         0.0000 
     63 H63        -0.7652    7.0971    2.0767 H         1 UNK         0.0000 
     64 H64        -1.8708    5.1741    0.3985 H         1 UNK         0.0000 
     65 H65        -0.8852    2.5305    3.3509 H         1 UNK         0.0000 
     66 H66        -4.0305   -2.6696    3.7585 H         1 UNK         0.0000 
     67 H67        -3.4578   -0.7002    5.1876 H         1 UNK         0.0000 
     68 H68        -2.2027    1.1767    4.2663 H         1 UNK         0.0000 
     69 H69         2.1501    3.5974   -1.7468 H         1 UNK         0.0000 
     70 H70         3.2409    2.3613   -1.2664 H         1 UNK         0.0000 
     71 H71         1.4008    0.5719   -1.8089 H         1 UNK         0.0000 
     72 H72         2.0857    1.5192   -3.1782 H         1 UNK         0.0000 
     73 H73         0.2299    3.1074   -3.1401 H         1 UNK         0.0000 
     74 H74        -0.6111    2.1965   -1.8499 H         1 UNK         0.0000 
     75 H75        -1.4899    1.8321   -4.1218 H         1 UNK         0.0000 
     76 H76         0.0750    1.1297   -4.6744 H         1 UNK         0.0000 
     77 H77        -0.8574   -0.3310   -2.3739 H         1 UNK         0.0000 
     78 H78        -4.2788   -5.4004   -2.5474 H         1 UNK         0.0000 
     79 H79        -5.0142   -4.2583   -4.6779 H         1 UNK         0.0000 
     80 H80        -3.8769   -2.1750   -5.3920 H         1 UNK         0.0000 
@<TRIPOS>BOND
     1    1    6 nc   
     2    1    8 nc   
     3    1   30 nc   
     4    1   32 nc   
     5    1   45 nc   
     6    1   47 nc   
     7    2   51 1    
     8    2    3 ar   
     9    2    9 ar   
    10    3   52 1    
    11    3    4 ar   
    12    4    5 ar   
    13    4   53 1    
    14    5    7 ar   
    15    5    6 1    
    16    7    9 ar   
    17    7    8 1    
    18    9   10 1    
    19   10   11 2    
    20   10   12 am   BACKBONE|DICT|INTERRES
    21   12   13 1    
    22   12   54 1    
    23   13   55 1    
    24   13   14 1    
    25   13   56 1    
    26   14   15 1    
    27   14   57 1    
    28   14   58 1    
    29   15   59 1    
    30   15   60 1    
    31   15   16 1    
    32   16   17 am   BACKBONE|DICT|INTERRES
    33   16   36 1    
    34   17   19 1    
    35   17   18 2    
    36   19   21 1    
    37   19   25 1    
    38   19   20 1    
    39   21   22 1    
    40   21   23 1    
    41   21   24 1    
    42   23   63 1    
    43   23   61 1    
    44   23   62 1    
    45   24   64 1    
    46   25   65 1    
    47   25   26 am   BACKBONE|DICT|INTERRES
    48   26   28 1    
    49   26   27 2    
    50   28   35 ar   
    51   28   29 ar   
    52   29   31 ar   
    53   29   30 1    
    54   31   33 ar   
    55   31   32 1    
    56   33   66 1    
    57   33   34 ar   
    58   34   67 1    
    59   34   35 ar   
    60   35   68 1    
    61   36   70 1    
    62   36   37 1    
    63   36   69 1    
    64   37   71 1    
    65   37   38 1    
    66   37   72 1    
    67   38   74 1    
    68   38   39 1    
    69   38   73 1    
    70   39   40 1    
    71   39   75 1    
    72   39   76 1    
    73   40   77 1    
    74   40   41 am   BACKBONE|DICT|INTERRES
    75   41   43 1    
    76   41   42 2    
    77   43   44 ar   
    78   43   50 ar   
    79   44   46 ar   
    80   44   45 1    
    81   46   47 1    
    82   46   48 ar   
    83   48   78 1    
    84   48   49 ar   
    85   49   50 ar   
    86   49   79 1    
    87   50   80 1    
@<TRIPOS>SUBSTRUCTURE
     1 UNK         1 GROUP             0       ****    0 ROOT    
