@<TRIPOS>MOLECULE
073_c1
104   108    1
SMALL
USER_CHARGES


@<TRIPOS>ATOM
      1 Fe1        -0.3682   -1.1920    0.1407 Fe        1 UNK         0.0000 
      2 O2          1.9217   -5.8126    7.1278 O.2       1 UNK         0.0000 
      3 C3          2.6626   -5.1173    6.4294 C.2       1 UNK         0.0000 
      4 O4          3.7249   -4.4197    6.8891 O.3       1 UNK         0.0000 
      5 C5          2.5191   -4.9895    4.9180 C.3       1 UNK         0.0000 
      6 C6          1.7075   -3.7877    4.4236 C.2       1 UNK         0.0000 
      7 C7          0.6704   -3.1611    5.3676 C.3       1 UNK         0.0000 
      8 C8          1.8960   -3.4114    3.1334 C.2       1 UNK         0.0000 
      9 C9          1.1372   -2.4453    2.3810 C.2       1 UNK         0.0000 
     10 O10         0.6409   -2.8729    1.3346 O.co2     1 UNK         0.0000 
     11 N11         0.9479   -1.1866    2.8945 N.am      1 UNK         0.0000 
     12 O12        -0.0244   -0.4104    2.4583 O.co2     1 UNK         0.0000 
     13 C13         1.8787   -0.4405    3.7542 C.3       1 UNK         0.0000 
     14 C14         2.4976    0.8222    3.0844 C.3       1 UNK         0.0000 
     15 C15         1.8382    2.1955    3.3890 C.3       1 UNK         0.0000 
     16 C16         0.4103    2.5649    2.8509 C.3       1 UNK         0.0000 
     17 H17        -0.2994    1.8091    3.1745 H         1 UNK         0.0000 
     18 C18         0.0082    3.8680    3.5895 C.2       1 UNK         0.0000 
     19 O19         0.5932    4.9326    3.5151 O.2       1 UNK         0.0000 
     20 O20        -1.0732    3.6947    4.3870 O.3       1 UNK         0.0000 
     21 N21         0.3288    2.6534    1.3673 N.am      1 UNK         0.0000 
     22 C22        -0.5089    3.4188    0.6352 C.2       1 UNK         0.0000 
     23 O23        -1.4862    4.0461    1.0835 O.2       1 UNK         0.0000 
     24 C24        -0.0999    3.8344   -0.8083 C.3       1 UNK         0.0000 
     25 H25         0.5798    4.6201   -0.4778 H         1 UNK         0.0000 
     26 C26         0.8903    3.0624   -1.7105 C.3       1 UNK         0.0000 
     27 C27         0.2353    2.2608   -2.8636 C.3       1 UNK         0.0000 
     28 C28         0.9926    0.9842   -3.3032 C.3       1 UNK         0.0000 
     29 N29         1.0103   -0.1501   -2.3488 N.am      1 UNK         0.0000 
     30 O30         1.0077    0.2267   -1.0586 O.co2     1 UNK         0.0000 
     31 C31         0.8744   -1.4774   -2.6851 C.2       1 UNK         0.0000 
     32 O32         0.5468   -2.3245   -1.8581 O.co2     1 UNK         0.0000 
     33 C33         1.2394   -1.8941   -4.0519 C.2       1 UNK         0.0000 
     34 C34         1.3562   -3.1716   -4.5232 C.2       1 UNK         0.0000 
     35 C35         1.7657   -3.3980   -5.9858 C.3       1 UNK         0.0000 
     36 C36         1.1055   -4.4178   -3.6513 C.3       1 UNK         0.0000 
     37 C37         1.3903   -5.8061   -4.2420 C.2       1 UNK         0.0000 
     38 O38         0.3137   -6.6204   -4.2145 O.3       1 UNK         0.0000 
     39 O39         2.4792   -6.1907   -4.6683 O.2       1 UNK         0.0000 
     40 N40        -1.0482    4.6610   -1.5606 N.am      1 UNK         0.0000 
     41 C41        -2.3638    4.6145   -1.8062 C.2       1 UNK         0.0000 
     42 O42        -2.8716    5.6254   -2.3050 O.2       1 UNK         0.0000 
     43 C43        -3.3804    3.4498   -1.5391 C.3       1 UNK         0.0000 
     44 H44        -3.8123    3.2597   -2.5251 H         1 UNK         0.0000 
     45 N45        -4.4763    4.1363   -0.7890 N.4       1 UNK         0.0000 
     46 H46        -5.2817    3.5360   -0.8082 H         1 UNK         0.0000 
     47 H47        -4.1163    4.2249    0.1518 H         1 UNK         0.0000 
     48 H48        -4.6157    5.0307   -1.2312 H         1 UNK         0.0000 
     49 C49        -3.1289    2.0803   -0.8913 C.3       1 UNK         0.0000 
     50 C50        -4.2805    1.0569   -1.1985 C.3       1 UNK         0.0000 
     51 C51        -4.4085   -0.2346   -0.3245 C.3       1 UNK         0.0000 
     52 N52        -3.1675   -1.0002   -0.1570 N.am      1 UNK         0.0000 
     53 O53        -2.2188   -0.2123    0.3305 O.co2     1 UNK         0.0000 
     54 C54        -2.8782   -2.3125   -0.4450 C.2       1 UNK         0.0000 
     55 O55        -1.7226   -2.7153   -0.4406 O.co2     1 UNK         0.0000 
     56 C56        -3.9797   -3.2628   -0.6421 C.2       1 UNK         0.0000 
     57 C57        -3.8997   -4.5826   -0.9973 C.2       1 UNK         0.0000 
     58 C58        -2.6249   -5.3754   -1.3224 C.3       1 UNK         0.0000 
     59 C59        -5.1694   -5.4454   -1.0394 C.3       1 UNK         0.0000 
     60 C60        -5.4630   -6.0484   -2.4225 C.2       1 UNK         0.0000 
     61 O61        -5.0383   -7.1316   -2.8211 O.2       1 UNK         0.0000 
     62 O62        -6.2998   -5.2946   -3.1656 O.3       1 UNK         0.0000 
     63 H63         1.9983   -5.8724    4.5535 H         1 UNK         0.0000 
     64 H64         3.5033   -5.0262    4.4462 H         1 UNK         0.0000 
     65 H65         0.0453   -3.9132    5.8405 H         1 UNK         0.0000 
     66 H66        -0.0210   -2.4919    4.8526 H         1 UNK         0.0000 
     67 H67         1.1512   -2.5631    6.1385 H         1 UNK         0.0000 
     68 H68         2.6249   -3.8939    2.5002 H         1 UNK         0.0000 
     69 H69         2.6922   -1.0878    4.0843 H         1 UNK         0.0000 
     70 H70         1.3538   -0.1728    4.6723 H         1 UNK         0.0000 
     71 H71         2.5631    0.6635    2.0057 H         1 UNK         0.0000 
     72 H72         3.5163    0.9006    3.4420 H         1 UNK         0.0000 
     73 H73         2.5237    2.9740    3.0411 H         1 UNK         0.0000 
     74 H74         1.8352    2.3018    4.4784 H         1 UNK         0.0000 
     75 H75         0.6167    1.7696    0.9211 H         1 UNK         0.0000 
     76 H76         1.5770    3.7715   -2.1824 H         1 UNK         0.0000 
     77 H77         1.5622    2.4710   -1.0930 H         1 UNK         0.0000 
     78 H78         0.1132    2.9164   -3.7140 H         1 UNK         0.0000 
     79 H79        -0.7674    1.9547   -2.6180 H         1 UNK         0.0000 
     80 H80         0.5585    0.7029   -4.2666 H         1 UNK         0.0000 
     81 H81         2.0277    1.2449   -3.5174 H         1 UNK         0.0000 
     82 H82         1.0457   -4.0157   -6.5203 H         1 UNK         0.0000 
     83 H83         1.8626   -2.4645   -6.5355 H         1 UNK         0.0000 
     84 H84         2.7353   -3.8888   -6.0190 H         1 UNK         0.0000 
     85 H85         1.7120   -4.3497   -2.7464 H         1 UNK         0.0000 
     86 H86         0.0709   -4.3928   -3.3041 H         1 UNK         0.0000 
     87 H87        -0.6119    5.5227   -1.8299 H         1 UNK         0.0000 
     88 H88        -2.1746    1.6504   -1.1960 H         1 UNK         0.0000 
     89 H89        -3.0468    2.1759    0.1947 H         1 UNK         0.0000 
     90 H90        -5.2349    1.5597   -1.1514 H         1 UNK         0.0000 
     91 H91        -4.1697    0.7096   -2.2227 H         1 UNK         0.0000 
     92 H92        -4.6981    0.0226    0.6968 H         1 UNK         0.0000 
     93 H93        -5.2466   -0.8142   -0.7149 H         1 UNK         0.0000 
     94 H94        -2.6388   -5.7413   -2.3475 H         1 UNK         0.0000 
     95 H95        -1.6789   -4.8429   -1.2359 H         1 UNK         0.0000 
     96 H96        -2.5257   -6.2330   -0.6608 H         1 UNK         0.0000 
     97 H97        -5.0488   -6.2617   -0.3317 H         1 UNK         0.0000 
     98 H98        -6.0465   -4.8928   -0.7117 H         1 UNK         0.0000 
     99 H99         4.0341   -3.8839    6.1542 H         1 UNK         0.0000 
    100 H100       -1.2375    4.5708    4.7101 H         1 UNK         0.0000 
    101 H101        0.6837   -7.4511   -4.5133 H         1 UNK         0.0000 
    102 H102       -6.3204   -5.7714   -3.9969 H         1 UNK         0.0000 
    103 H103        1.4560   -1.0896   -4.7348 H         1 UNK         0.0000 
    104 H104       -4.9474   -2.8446   -0.4283 H         1 UNK         0.0000 
@<TRIPOS>BOND
     1    1   10 nc   
     2    1   12 nc   
     3    1   30 nc   
     4    1   32 nc   
     5    1   53 nc   
     6    1   55 nc   
     7    2    3 2    
     8    3    4 1    
     9    3    5 1    
    10    4   99 1    
    11    5    6 1    
    12    5   63 1    
    13    5   64 1    
    14    6    7 1    
    15    6    8 2    
    16    7   65 1    
    17    7   67 1    
    18    7   66 1    
    19    8    9 1    
    20    8   68 1    
    21    9   11 am   BACKBONE|DICT|INTERRES
    22    9   10 2    
    23   11   13 1    
    24   11   12 1    
    25   13   69 1    
    26   13   70 1    
    27   13   14 1    
    28   14   15 1    
    29   14   72 1    
    30   14   71 1    
    31   15   74 1    
    32   15   16 1    
    33   15   73 1    
    34   16   17 1    
    35   16   18 1    
    36   16   21 1    
    37   18   20 1    
    38   18   19 2    
    39   20  100 1    
    40   21   22 am   BACKBONE|DICT|INTERRES
    41   21   75 1    
    42   22   23 2    
    43   22   24 1    
    44   24   25 1    
    45   24   26 1    
    46   24   40 1    
    47   26   77 1    
    48   26   27 1    
    49   26   76 1    
    50   27   79 1    
    51   27   28 1    
    52   27   78 1    
    53   28   29 1    
    54   28   80 1    
    55   28   81 1    
    56   29   30 1    
    57   29   31 am   BACKBONE|DICT|INTERRES
    58   31   32 2    
    59   31   33 1    
    60   33   34 2    
    61   33  103 1    
    62   34   36 1    
    63   34   35 1    
    64   35   84 1    
    65   35   82 1    
    66   35   83 1    
    67   36   86 1    
    68   36   85 1    
    69   36   37 1    
    70   37   38 1    
    71   37   39 2    
    72   38  101 1    
    73   40   41 am   BACKBONE|DICT|INTERRES
    74   40   87 1    
    75   41   43 1    
    76   41   42 2    
    77   43   44 1    
    78   43   45 1    
    79   43   49 1    
    80   45   47 1    
    81   45   46 1    
    82   45   48 1    
    83   49   89 1    
    84   49   50 1    
    85   49   88 1    
    86   50   90 1    
    87   50   51 1    
    88   50   91 1    
    89   51   92 1    
    90   51   52 1    
    91   51   93 1    
    92   52   53 1    
    93   52   54 am   BACKBONE|DICT|INTERRES
    94   54   55 2    
    95   54   56 1    
    96   56   57 2    
    97   56  104 1    
    98   57   58 1    
    99   57   59 1    
   100   58   95 1    
   101   58   96 1    
   102   58   94 1    
   103   59   98 1    
   104   59   97 1    
   105   59   60 1    
   106   60   61 2    
   107   60   62 1    
   108   62  102 1    
@<TRIPOS>SUBSTRUCTURE
     1 UNK         1 GROUP             0       ****    0 ROOT    
