@<TRIPOS>MOLECULE
179_D2i_c1
85   93    1
SMALL
USER_CHARGES


@<TRIPOS>ATOM
      1 Fe1         0.4078   -0.9903    0.4825 Fe        1 UNK         0.0000 
      2 O2         -1.4548   -0.3491    1.1046 O.co2     1 UNK         0.0000 
      3 N3         -1.6293    0.9032    1.5314 N.am      1 UNK         0.0000 
      4 C4         -0.4079    1.5217    1.5001 C.2       1 UNK         0.0000 
      5 O5          0.5437    0.8755    1.0992 O.co2     1 UNK         0.0000 
      6 C6         -0.3580    3.0353    1.8231 C.3       1 UNK         0.0000 
      7 H7          0.4637    3.0393    2.5422 H         1 UNK         0.0000 
      8 C8         -1.6091    3.5127    2.6273 C.3       1 UNK         0.0000 
      9 C9         -2.9340    2.8133    2.2335 C.3       1 UNK         0.0000 
     10 C10        -2.7994    1.2919    2.3223 C.3       1 UNK         0.0000 
     11 N11         0.1841    3.8188    0.6596 N.am      1 UNK         0.0000 
     12 C12        -0.4563    4.9124   -0.1046 C.3       1 UNK         0.0000 
     13 C13        -1.9801    4.7965   -0.2918 C.3       1 UNK         0.0000 
     14 C14        -0.1528    6.2711    0.5879 C.3       1 UNK         0.0000 
     15 C15         1.5033    3.7017    0.3097 C.2       1 UNK         0.0000 
     16 O16         2.4913    3.5131    1.0230 O.2       1 UNK         0.0000 
     17 C17         1.5895    4.0823   -1.1840 C.3       1 UNK         0.0000 
     18 H18         2.3134    4.9043   -1.2109 H         1 UNK         0.0000 
     19 N19         0.2201    4.7126   -1.4570 N.4       1 UNK         0.0000 
     20 H20        -0.3124    3.9495   -1.8522 H         1 UNK         0.0000 
     21 C21         0.2647    5.9437   -2.3934 C.3       1 UNK         0.0000 
     22 C22         1.9916    2.9359   -2.1494 C.3       1 UNK         0.0000 
     23 C23         0.8856    1.8678   -2.3927 C.3       1 UNK         0.0000 
     24 C24         1.4288    0.5676   -3.0678 C.3       1 UNK         0.0000 
     25 N25         1.1396   -0.6140   -2.2414 N.am      1 UNK         0.0000 
     26 O26         1.7221   -0.5836   -1.0591 O.co2     1 UNK         0.0000 
     27 C27         0.0194   -1.3553   -2.2483 C.2       1 UNK         0.0000 
     28 O28        -0.2696   -1.9302   -1.1987 O.co2     1 UNK         0.0000 
     29 C29        -0.9256   -1.3467   -3.4577 C.3       1 UNK         0.0000 
     30 C30        -2.3468   -1.9149   -3.2179 C.3       1 UNK         0.0000 
     31 N31        -2.3691   -3.2555   -2.6502 N.am      1 UNK         0.0000 
     32 C32        -3.3688   -4.1435   -2.7721 C.2       1 UNK         0.0000 
     33 O33        -4.3587   -3.9534   -3.4855 O.2       1 UNK         0.0000 
     34 C34        -3.2956   -5.4067   -1.9258 C.3       1 UNK         0.0000 
     35 N35        -2.8584   -5.0027   -0.5924 N.am      1 UNK         0.0000 
     36 C36        -1.7189   -5.4188   -0.0196 C.2       1 UNK         0.0000 
     37 O37        -1.0932   -6.3802   -0.4863 O.2       1 UNK         0.0000 
     38 C38        -1.3056   -4.6797    1.2891 C.3       1 UNK         0.0000 
     39 H39        -1.9630   -5.0850    2.0612 H         1 UNK         0.0000 
     40 N40         0.0535   -4.9188    1.6498 N.2       1 UNK         0.0000 
     41 C41         0.6522   -3.7786    1.5710 C.2       1 UNK         0.0000 
     42 O42        -0.1384   -2.6921    1.2335 O.3       1 UNK         0.0000 
     43 C43        -1.4566   -3.1514    1.2416 C.3       1 UNK         0.0000 
     44 C44         2.0944   -3.5992    1.8474 C.ar      1 UNK         0.0000 
     45 C45         2.6890   -2.3359    1.9225 C.ar      1 UNK         0.0000 
     46 O46         1.9885   -1.2801    1.7643 O.co2     1 UNK         0.0000 
     47 C47         4.0567   -2.2083    2.1602 C.ar      1 UNK         0.0000 
     48 C48         4.8532   -3.3438    2.3533 C.ar      1 UNK         0.0000 
     49 C49         4.2756   -4.6117    2.3151 C.ar      1 UNK         0.0000 
     50 C50         2.9045   -4.7377    2.0575 C.ar      1 UNK         0.0000 
     51 H51        -1.7308    4.5920    2.5928 H         1 UNK         0.0000 
     52 H52        -1.4128    3.2872    3.6795 H         1 UNK         0.0000 
     53 H53        -3.2332    3.0402    1.2125 H         1 UNK         0.0000 
     54 H54        -3.7533    3.1618    2.8594 H         1 UNK         0.0000 
     55 H55        -2.6603    0.9423    3.3407 H         1 UNK         0.0000 
     56 H56        -3.6704    0.7794    1.9167 H         1 UNK         0.0000 
     57 H57        -2.2685    3.8018   -0.6334 H         1 UNK         0.0000 
     58 H58        -2.3340    5.4962   -1.0427 H         1 UNK         0.0000 
     59 H59        -2.5514    5.0346    0.6024 H         1 UNK         0.0000 
     60 H60         0.9157    6.4596    0.6870 H         1 UNK         0.0000 
     61 H61        -0.5545    6.2988    1.6015 H         1 UNK         0.0000 
     62 H62        -0.5807    7.1134    0.0477 H         1 UNK         0.0000 
     63 H63         0.6866    5.6322   -3.3473 H         1 UNK         0.0000 
     64 H64        -0.7445    6.3313   -2.5306 H         1 UNK         0.0000 
     65 H65         0.8997    6.7015   -1.9364 H         1 UNK         0.0000 
     66 H66         2.2871    3.3734   -3.1052 H         1 UNK         0.0000 
     67 H67         2.8817    2.4466   -1.7482 H         1 UNK         0.0000 
     68 H68         0.0316    2.2537   -2.9605 H         1 UNK         0.0000 
     69 H69         0.4580    1.5756   -1.4228 H         1 UNK         0.0000 
     70 H70         1.0394    0.4462   -4.0776 H         1 UNK         0.0000 
     71 H71         2.5215    0.6110   -3.1820 H         1 UNK         0.0000 
     72 H72        -0.4001   -1.9725   -4.1777 H         1 UNK         0.0000 
     73 H73        -0.9922   -0.3339   -3.8443 H         1 UNK         0.0000 
     74 H74        -2.9531   -1.8307   -4.1244 H         1 UNK         0.0000 
     75 H75        -2.8289   -1.2801   -2.4702 H         1 UNK         0.0000 
     76 H76        -1.6111   -3.4095   -1.9798 H         1 UNK         0.0000 
     77 H77        -2.6018   -6.0913   -2.4114 H         1 UNK         0.0000 
     78 H78        -4.2640   -5.9051   -1.9077 H         1 UNK         0.0000 
     79 H79        -3.2587   -4.1569   -0.2097 H         1 UNK         0.0000 
     80 H80        -2.0131   -2.7625    0.3975 H         1 UNK         0.0000 
     81 H81        -1.9414   -2.7878    2.1492 H         1 UNK         0.0000 
     82 H82         4.4817   -1.2217    2.1768 H         1 UNK         0.0000 
     83 H83         5.9138   -3.2386    2.5212 H         1 UNK         0.0000 
     84 H84         4.8607   -5.5035    2.4550 H         1 UNK         0.0000 
     85 H85         2.4631   -5.7212    2.0161 H         1 UNK         0.0000 
@<TRIPOS>BOND
     1    1    2 nc   
     2    1    5 nc   
     3    1   26 nc   
     4    1   28 nc   
     5    1   42 nc   
     6    1   46 nc   
     7    2    3 1    
     8    3   10 1    
     9    3    4 am   BACKBONE|DICT|INTERRES
    10    4    5 2    
    11    4    6 1    
    12    6    8 1    
    13    6    7 1    
    14    6   11 1    
    15    8   51 1    
    16    8   52 1    
    17    8    9 1    
    18    9   10 1    
    19    9   54 1    
    20    9   53 1    
    21   10   55 1    
    22   10   56 1    
    23   11   12 1    
    24   11   15 am   BACKBONE|DICT|INTERRES
    25   12   14 1    
    26   12   13 1    
    27   12   19 1    
    28   13   59 1    
    29   13   57 1    
    30   13   58 1    
    31   14   60 1    
    32   14   61 1    
    33   14   62 1    
    34   15   16 2    
    35   15   17 1    
    36   17   18 1    
    37   17   19 1    
    38   17   22 1    
    39   19   20 1    
    40   19   21 1    
    41   21   65 1    
    42   21   63 1    
    43   21   64 1    
    44   22   23 1    
    45   22   67 1    
    46   22   66 1    
    47   23   69 1    
    48   23   24 1    
    49   23   68 1    
    50   24   71 1    
    51   24   25 1    
    52   24   70 1    
    53   25   27 am   BACKBONE|DICT|INTERRES
    54   25   26 1    
    55   27   29 1    
    56   27   28 2    
    57   29   30 1    
    58   29   72 1    
    59   29   73 1    
    60   30   31 1    
    61   30   75 1    
    62   30   74 1    
    63   31   32 am   BACKBONE|DICT|INTERRES
    64   31   76 1    
    65   32   34 1    
    66   32   33 2    
    67   34   35 1    
    68   34   77 1    
    69   34   78 1    
    70   35   79 1    
    71   35   36 am   BACKBONE|DICT|INTERRES
    72   36   38 1    
    73   36   37 2    
    74   38   40 1    
    75   38   39 1    
    76   38   43 1    
    77   40   41 2    
    78   41   44 1    
    79   41   42 1    
    80   42   43 1    
    81   43   81 1    
    82   43   80 1    
    83   44   45 ar   
    84   44   50 ar   
    85   45   47 ar   
    86   45   46 1    
    87   47   82 1    
    88   47   48 ar   
    89   48   83 1    
    90   48   49 ar   
    91   49   84 1    
    92   49   50 ar   
    93   50   85 1    
@<TRIPOS>SUBSTRUCTURE
     1 UNK         1 GROUP             0       ****    0 ROOT    
