@<TRIPOS>MOLECULE
280_c1
171   184    1
SMALL
USER_CHARGES


@<TRIPOS>ATOM
      1 C1         -2.8149    5.3665    4.2831 C.ar      1 UNK         0.0000 
      2 C2         -2.7812    6.4300    5.1845 C.ar      1 UNK         0.0000 
      3 C3         -1.6808    6.6494    6.0254 C.ar      1 UNK         0.0000 
      4 O4         -1.6857    7.6880    6.9218 O.co2     1 UNK         0.0000 
      5 C5         -0.6052    5.7426    5.9676 C.ar      1 UNK         0.0000 
      6 O6          0.4081    5.9363    6.8486 O.3       1 UNK         0.0000 
      7 C7          1.0326    4.9494    7.5846 C.3       1 UNK         0.0000 
      8 C8         -0.6106    4.6749    5.0066 C.ar      1 UNK         0.0000 
      9 Cl9         0.7416    3.5368    4.9035 Cl        1 UNK         0.0000 
     10 C10        -1.7277    4.4959    4.1456 C.ar      1 UNK         0.0000 
     11 C11        -1.8545    3.3967    3.1195 C.2       1 UNK         0.0000 
     12 O12        -2.9026    2.7672    3.1126 O.2       1 UNK         0.0000 
     13 N13        -0.9357    3.1080    2.1404 N.am      1 UNK         0.0000 
     14 C14         0.2198    3.9192    1.8105 C.3       1 UNK         0.0000 
     15 C15         0.0000    4.5362    0.3938 C.3       1 UNK         0.0000 
     16 N16         0.7560    5.8077    0.1305 N.4       1 UNK         0.0000 
     17 C17         0.5648    6.1235   -1.3246 C.3       1 UNK         0.0000 
     18 C18         1.7563    5.5048   -2.0474 C.3       1 UNK         0.0000 
     19 C19         2.8632    5.9042   -1.1047 C.3       1 UNK         0.0000 
     20 C20         2.2300    5.5897    0.2607 C.3       1 UNK         0.0000 
     21 C21         0.1253    6.8390    1.0449 C.3       1 UNK         0.0000 
     22 C22         0.7359    8.1821    1.3994 C.2       1 UNK         0.0000 
     23 C23         0.0159    8.9620    2.2945 C.2       1 UNK         0.0000 
     24 C24        -0.9690    8.5548    3.3934 C.2       1 UNK         0.0000 
     25 O25        -0.9254    9.1741    4.6483 O.co2     1 UNK         0.0000 
     26 O26        -1.8404    7.7561    3.1255 O.co2     1 UNK         0.0000 
     27 C27         1.8485    8.8174    0.5073 C.3       1 UNK         0.0000 
     28 S28         2.0663   10.6549    0.5702 S.3       1 UNK         0.0000 
     29 C29         0.2834   10.7634    0.5000 C.3       1 UNK         0.0000 
     30 H30        -0.1497   10.1724   -0.3446 H         1 UNK         0.0000 
     31 N31        -0.1545   10.2499    1.7633 N.am      1 UNK         0.0000 
     32 C32        -0.5515   12.0680    0.7360 C.3       1 UNK         0.0000 
     33 H33        -1.4249   12.2580    0.0756 H         1 UNK         0.0000 
     34 C34        -0.9432   11.2830    1.9369 C.2       1 UNK         0.0000 
     35 O35        -1.7618   11.4683    2.8229 O.2       1 UNK         0.0000 
     36 N36         0.1679   13.1739    1.2555 N.am      1 UNK         0.0000 
     37 C37        -0.2785   14.4404    1.1915 C.2       1 UNK         0.0000 
     38 O38        -1.1439   14.7791    0.3973 O.2       1 UNK         0.0000 
     39 C39         0.2405   15.3686    2.2012 C.2       1 UNK         0.0000 
     40 N40         0.3549   14.9589    3.4262 N.2       1 UNK         0.0000 
     41 O41        -0.0593   13.7591    3.8446 O.3       1 UNK         0.0000 
     42 C42         0.6574   13.0756    4.8135 C.3       1 UNK         0.0000 
     43 C43         2.1000   12.8033    4.2448 C.3       1 UNK         0.0000 
     44 C44         0.8083   13.9726    6.0241 C.3       1 UNK         0.0000 
     45 C45         0.0252   11.7093    5.2389 C.2       1 UNK         0.0000 
     46 O46        -1.1470   11.4758    5.9841 O.co2     1 UNK         0.0000 
     47 O47         0.7586   10.7539    5.0370 O.co2     1 UNK         0.0000 
     48 C48         0.6712   16.7335    1.8557 C.2       1 UNK         0.0000 
     49 N49         1.1007   17.5928    2.8165 N.2       1 UNK         0.0000 
     50 C50         1.4912   18.7692    2.2914 C.2       1 UNK         0.0000 
     51 N51         1.9785   19.8340    3.0755 N.pl3     1 UNK         0.0000 
     52 S52         1.3372   18.8040    0.6184 S.3       1 UNK         0.0000 
     53 C53         0.7343   17.2334    0.5528 C.2       1 UNK         0.0000 
     54 H54        -3.6888    5.2550    3.6501 H         1 UNK         0.0000 
     55 H55        -3.6259    7.0864    5.1790 H         1 UNK         0.0000 
     56 H56         2.0916    4.8595    7.2685 H         1 UNK         0.0000 
     57 H57         0.5154    3.9698    7.4937 H         1 UNK         0.0000 
     58 H58         0.9935    5.2264    8.6570 H         1 UNK         0.0000 
     59 H59        -1.1464    2.3344    1.4906 H         1 UNK         0.0000 
     60 H60         1.1515    3.3221    1.8419 H         1 UNK         0.0000 
     61 H61         0.3562    4.6830    2.5755 H         1 UNK         0.0000 
     62 H62        -1.0884    4.7663    0.2800 H         1 UNK         0.0000 
     63 H63         0.2088    3.7456   -0.3621 H         1 UNK         0.0000 
     64 H64         0.5910    7.2091   -1.5193 H         1 UNK         0.0000 
     65 H65        -0.4090    5.7930   -1.7527 H         1 UNK         0.0000 
     66 H66         1.6593    4.3970   -2.0522 H         1 UNK         0.0000 
     67 H67         1.8944    5.8518   -3.0961 H         1 UNK         0.0000 
     68 H68         3.0289    6.9923   -1.2234 H         1 UNK         0.0000 
     69 H69         3.8373    5.4013   -1.2899 H         1 UNK         0.0000 
     70 H70         2.7072    6.1250    1.1051 H         1 UNK         0.0000 
     71 H71         2.4468    4.5098    0.4098 H         1 UNK         0.0000 
     72 H72        -0.2799    6.4317    1.9649 H         1 UNK         0.0000 
     73 H73        -0.8247    7.1513    0.5420 H         1 UNK         0.0000 
     74 H74         1.7229    8.6003   -0.5527 H         1 UNK         0.0000 
     75 H75         2.8203    8.3911    0.8374 H         1 UNK         0.0000 
     76 H76         0.9740   12.9653    1.8504 H         1 UNK         0.0000 
     77 H77         2.5985   13.7276    3.8867 H         1 UNK         0.0000 
     78 H78         2.0817   12.0759    3.4048 H         1 UNK         0.0000 
     79 H79         2.7595   12.3407    5.0118 H         1 UNK         0.0000 
     80 H80         1.3223   14.9245    5.7660 H         1 UNK         0.0000 
     81 H81         1.4480   13.4379    6.7004 H         1 UNK         0.0000 
     82 H82        -0.1655   14.1820    6.5050 H         1 UNK         0.0000 
     83 H83         2.0435   19.7330    4.0986 H         1 UNK         0.0000 
     84 H84         2.2705   20.7154    2.6314 H         1 UNK         0.0000 
     85 H85         0.4699   16.7053   -0.3540 H         1 UNK         0.0000 
     86 Fe86       -1.4847    9.5840    6.5539 Fe        1 UNK         0.0000 
     87 H87        -4.9274   13.8445    6.7016 H         1 UNK         0.0000 
     88 C88        -5.0578   12.9567    6.0499 C.3       1 UNK         0.0000 
     89 H89         0.6500   13.1745    9.9591 H         1 UNK         0.0000 
     90 H90        -4.6008   13.1605    5.0610 H         1 UNK         0.0000 
     91 H91         2.4054   13.1817    8.3940 H         1 UNK         0.0000 
     92 O92        -4.4299   11.8635    6.6152 O.3       1 UNK         0.0000 
     93 O93        -0.4787   11.7566    8.2992 O.co2     1 UNK         0.0000 
     94 Cl94       -6.9932   12.3306    8.3077 Cl        1 UNK         0.0000 
     95 H95        -6.0976   12.8838   15.4100 H         1 UNK         0.0000 
     96 C96         1.0523   12.2140   10.3531 C.3       1 UNK         0.0000 
     97 C97         0.4444   10.9564    8.2546 C.2       1 UNK         0.0000 
     98 H98        -6.1372   12.7692    5.8617 H         1 UNK         0.0000 
     99 C99         2.7359   12.1463    8.5542 C.3       1 UNK         0.0000 
    100 C100       -5.0493   10.7458    7.0729 C.ar      1 UNK         0.0000 
    101 H101        0.1969   11.7199   10.8560 H         1 UNK         0.0000 
    102 O102        0.3283    9.8834    7.3497 O.co2     1 UNK         0.0000 
    103 H103        1.8240   12.4718   11.1080 H         1 UNK         0.0000 
    104 C104       -5.6939   11.9600   14.9406 C.3       1 UNK         0.0000 
    105 C105        1.6208   11.3064    9.2140 C.3       1 UNK         0.0000 
    106 H106        3.5784   12.3231    9.2554 H         1 UNK         0.0000 
    107 H107        3.1211   11.6620    7.6361 H         1 UNK         0.0000 
    108 H108       -6.8732   12.3184   13.2562 H         1 UNK         0.0000 
    109 C109       -6.2475   10.7855    7.8673 C.ar      1 UNK         0.0000 
    110 C110       -5.8587   11.8891   13.4126 C.3       1 UNK         0.0000 
    111 H111       -5.1717   12.5404   12.8413 H         1 UNK         0.0000 
    112 O112       -3.3304    9.4182    5.9749 O.co2     1 UNK         0.0000 
    113 H113       -4.6282   11.8827   15.2311 H         1 UNK         0.0000 
    114 C114       -4.4771    9.5061    6.7212 C.ar      1 UNK         0.0000 
    115 H115       -7.7608   11.8793   11.2448 H         1 UNK         0.0000 
    116 H116       -7.4791   10.7872   15.2152 H         1 UNK         0.0000 
    117 C117       -6.3823   10.6887   15.3698 C.3       1 UNK         0.0000 
    118 H118       -3.0213   12.2604   13.2861 H         1 UNK         0.0000 
    119 S119       -0.8920   11.2190   13.4584 S.3       1 UNK         0.0000 
    120 O120        2.1569   10.1724    9.7987 O.3       1 UNK         0.0000 
    121 C121       -7.4110   10.8488   11.0393 C.3       1 UNK         0.0000 
    122 C122       -6.8771    9.5737    8.2720 C.ar      1 UNK         0.0000 
    123 C123       -2.7326   11.1878   13.2801 C.3       1 UNK         0.0000 
    124 N124       -5.8419   10.4413   13.0230 N.4       1 UNK         0.0000 
    125 C125       -5.8008    9.7266   14.3429 C.3       1 UNK         0.0000 
    126 H126       -6.3041    8.7331   14.3506 H         1 UNK         0.0000 
    127 N127       -8.3931   10.1176   10.2681 N.am      1 UNK         0.0000 
    128 H128       -6.1990   10.3986   16.4289 H         1 UNK         0.0000 
    129 C129       -8.1507    9.4809    9.0776 C.2       1 UNK         0.0000 
    130 C130       -5.1398    8.3286    7.1097 C.ar      1 UNK         0.0000 
    131 H131       -3.1099   10.7232   14.1947 H         1 UNK         0.0000 
    132 N132        3.4014   10.1657   10.2647 N.2       1 UNK         0.0000 
    133 C133       -7.1351   10.0708   12.3602 C.3       1 UNK         0.0000 
    134 H134       -6.4963   10.9621   10.4555 H         1 UNK         0.0000 
    135 C135       -6.3142    8.3633    7.8534 C.ar      1 UNK         0.0000 
    136 O136       -9.0039    8.7046    8.6720 O.2       1 UNK         0.0000 
    137 C137       -4.7469    9.9495   12.0874 C.3       1 UNK         0.0000 
    138 C138       -3.3552   10.5625   11.9922 C.2       1 UNK         0.0000 
    139 H139       -9.3049    9.9614   10.7260 H         1 UNK         0.0000 
    140 H140        1.4910   10.4288   12.0662 H         1 UNK         0.0000 
    141 H141        8.2615   10.9388    9.4647 H         1 UNK         0.0000 
    142 H142       -4.5091    8.9035   12.4008 H         1 UNK         0.0000 
    143 C143       -0.9130    9.5336   12.8809 C.3       1 UNK         0.0000 
    144 H144       -7.0966    8.9795   12.1224 H         1 UNK         0.0000 
    145 N145        1.5743    9.4377   12.2994 N.am      1 UNK         0.0000 
    146 H146       -4.7582    7.3540    6.8747 H         1 UNK         0.0000 
    147 C147        3.7791    9.5347   11.3272 C.2       1 UNK         0.0000 
    148 H148       -4.7582    9.5216   14.6596 H         1 UNK         0.0000 
    149 N149        6.0845   10.0731   10.7172 N.2       1 UNK         0.0000 
    150 H150       -1.6125    8.8961   13.4754 H         1 UNK         0.0000 
    151 H151       -8.0130   10.1985   13.0331 H         1 UNK         0.0000 
    152 C152       -2.5367   10.0938   10.9641 C.2       1 UNK         0.0000 
    153 N153        8.4388   10.4803   10.3711 N.pl3     1 UNK         0.0000 
    154 N154       -1.3240    9.6109   11.5092 N.am      1 UNK         0.0000 
    155 C155        0.3609    8.7089   12.4703 C.3       1 UNK         0.0000 
    156 H156       -6.7712    7.4208    8.1348 H         1 UNK         0.0000 
    157 C157        2.7712    8.8322   12.1422 C.2       1 UNK         0.0000 
    158 C158        5.2216    9.5074   11.6018 C.2       1 UNK         0.0000 
    159 C159        7.3594    9.9778   11.1259 C.2       1 UNK         0.0000 
    160 H160       -5.0923    9.6986   11.0837 H         1 UNK         0.0000 
    161 H161        9.4046   10.3868   10.7123 H         1 UNK         0.0000 
    162 C162       -0.3290    8.8318   11.1485 C.2       1 UNK         0.0000 
    163 C163       -2.8785    9.5806    9.5479 C.2       1 UNK         0.0000 
    164 H164        0.4218    7.6469   12.7899 H         1 UNK         0.0000 
    165 O165       -3.7784    8.7794    9.4046 O.co2     1 UNK         0.0000 
    166 O166        2.9685    7.6934   12.5392 O.2       1 UNK         0.0000 
    167 C167        5.8198    8.9635   12.7374 C.2       1 UNK         0.0000 
    168 O168       -0.1039    8.3580   10.0467 O.2       1 UNK         0.0000 
    169 S169        7.4868    9.1992   12.6107 S.3       1 UNK         0.0000 
    170 O170       -2.0799    9.9575    8.4593 O.co2     1 UNK         0.0000 
    171 H171        5.3114    8.4886   13.5656 H         1 UNK         0.0000 
@<TRIPOS>BOND
     1    1    2 ar   
     2    1   10 ar   
     3    1   54 1    
     4    2    3 ar   
     5    2   55 1    
     6    3    4 1    
     7    3    5 ar   
     8    4   86 nc   
     9    5    6 1    
    10    5    8 ar   
    11    6    7 1    
    12    7   56 1    
    13    7   57 1    
    14    7   58 1    
    15    8    9 1    
    16    8   10 ar   
    17   10   11 1    
    18   11   12 2    
    19   11   13 am   BACKBONE|DICT|INTERRES
    20   13   14 1    
    21   13   59 1    
    22   14   15 1    
    23   14   60 1    
    24   14   61 1    
    25   15   16 1    
    26   15   62 1    
    27   15   63 1    
    28   16   17 1    
    29   16   20 1    
    30   16   21 1    
    31   17   18 1    
    32   17   64 1    
    33   17   65 1    
    34   18   19 1    
    35   18   66 1    
    36   18   67 1    
    37   19   20 1    
    38   19   68 1    
    39   19   69 1    
    40   20   70 1    
    41   20   71 1    
    42   21   22 1    
    43   21   72 1    
    44   21   73 1    
    45   22   23 2    
    46   22   27 1    
    47   23   24 1    
    48   23   31 1    
    49   24   25 1    
    50   24   26 2    
    51   25   86 nc   
    52   27   28 1    
    53   27   74 1    
    54   27   75 1    
    55   28   29 1    
    56   29   30 1    
    57   29   31 1    
    58   29   32 1    
    59   31   34 am   BACKBONE|DICT|INTERRES
    60   32   33 1    
    61   32   34 1    
    62   32   36 1    
    63   34   35 2    
    64   36   37 am   BACKBONE|DICT|INTERRES
    65   36   76 1    
    66   37   38 2    
    67   37   39 1    
    68   39   40 2    
    69   39   48 1    
    70   40   41 1    
    71   41   42 1    
    72   42   43 1    
    73   42   44 1    
    74   42   45 1    
    75   43   77 1    
    76   43   78 1    
    77   43   79 1    
    78   44   80 1    
    79   44   81 1    
    80   44   82 1    
    81   45   46 1    
    82   45   47 2    
    83   46   86 nc   
    84   48   49 1    
    85   48   53 2    
    86   49   50 2    
    87   50   51 1    
    88   50   52 1    
    89   51   83 1    
    90   51   84 1    
    91   52   53 1    
    92   53   85 1    
    93   86  102 nc   
    94   86  112 nc   
    95   86  170 nc   
    96   87   88 1    
    97   88   98 1    
    98   88   90 1    
    99   88   92 1    
   100   89   96 1    
   101   91   99 1    
   102   92  100 1    
   103   93   97 2    
   104   94  109 1    
   105   95  104 1    
   106   96  103 1    
   107   96  101 1    
   108   96  105 1    
   109   97  102 1    
   110   97  105 1    
   111   99  106 1    
   112   99  107 1    
   113   99  105 1    
   114  100  109 ar   
   115  100  114 ar   
   116  104  110 1    
   117  104  113 1    
   118  104  117 1    
   119  105  120 1    
   120  108  110 1    
   121  109  122 ar   
   122  110  111 1    
   123  110  124 1    
   124  112  114 1    
   125  114  130 ar   
   126  115  121 1    
   127  116  117 1    
   128  117  128 1    
   129  117  125 1    
   130  118  123 1    
   131  119  143 1    
   132  119  123 1    
   133  120  132 1    
   134  121  133 1    
   135  121  134 1    
   136  121  127 1    
   137  122  129 1    
   138  122  135 ar   
   139  123  131 1    
   140  123  138 1    
   141  124  125 1    
   142  124  137 1    
   143  124  133 1    
   144  125  148 1    
   145  125  126 1    
   146  127  139 1    
   147  127  129 am   BACKBONE|DICT|INTERRES
   148  129  136 2    
   149  130  146 1    
   150  130  135 ar   
   151  132  147 2    
   152  133  144 1    
   153  133  151 1    
   154  135  156 1    
   155  137  138 1    
   156  137  160 1    
   157  137  142 1    
   158  138  152 2    
   159  140  145 1    
   160  141  153 1    
   161  143  150 1    
   162  143  154 1    
   163  143  155 1    
   164  145  157 am   BACKBONE|DICT|INTERRES
   165  145  155 1    
   166  147  158 1    
   167  147  157 1    
   168  149  159 2    
   169  149  158 1    
   170  152  163 1    
   171  152  154 1    
   172  153  161 1    
   173  153  159 1    
   174  154  162 am   BACKBONE|DICT|INTERRES
   175  155  164 1    
   176  155  162 1    
   177  157  166 2    
   178  158  167 2    
   179  159  169 1    
   180  162  168 2    
   181  163  170 1    
   182  163  165 2    
   183  167  171 1    
   184  167  169 1    
@<TRIPOS>SUBSTRUCTURE
     1 UNK         1 GROUP             0       ****    0 ROOT    
