@<TRIPOS>MOLECULE
078_c1
75   78    1
SMALL
USER_CHARGES


@<TRIPOS>ATOM
      1 Fe1         0.0104    0.0456   -0.0515 Fe        1 UNK         0.0000 
      2 O2         -0.1689   -1.9961   -0.4819 O.co2     1 UNK         0.0000 
      3 C3         -0.6786   -2.7437   -1.3540 C.2       1 UNK         0.0000 
      4 O4         -1.5950   -3.5475   -1.0670 O.co2     1 UNK         0.0000 
      5 C5         -0.3458   -2.6958   -2.8745 C.3       1 UNK         0.0000 
      6 H6         -0.1416   -3.7324   -3.1793 H         1 UNK         0.0000 
      7 N7         -1.7290   -2.4335   -3.4609 N.4       1 UNK         0.0000 
      8 H8         -2.3248   -3.2154   -3.1845 H         1 UNK         0.0000 
      9 H9         -1.7321   -2.3251   -4.4587 H         1 UNK         0.0000 
     10 H10        -2.0779   -1.5889   -3.0194 H         1 UNK         0.0000 
     11 C11         0.7414   -1.7363   -3.5289 C.3       1 UNK         0.0000 
     12 C12         2.0772   -1.4299   -2.7798 C.3       1 UNK         0.0000 
     13 C13         2.4731    0.0993   -2.5514 C.3       1 UNK         0.0000 
     14 N14         2.0676    0.7314   -1.2600 N.am      1 UNK         0.0000 
     15 O15         2.1856   -0.0759   -0.2125 O.co2     1 UNK         0.0000 
     16 C16         1.5221    1.9625   -1.0688 C.2       1 UNK         0.0000 
     17 O17         0.8000    2.0821   -0.0696 O.co2     1 UNK         0.0000 
     18 C18         1.5556    3.0315   -2.0199 C.2       1 UNK         0.0000 
     19 C19         2.5876    3.5815   -2.6952 C.2       1 UNK         0.0000 
     20 C20         4.0578    3.2696   -2.4677 C.3       1 UNK         0.0000 
     21 C21         2.2297    4.6241   -3.7417 C.3       1 UNK         0.0000 
     22 C22         1.8002    3.9386   -5.0456 C.3       1 UNK         0.0000 
     23 O23         1.2428    4.8500   -5.9560 O.3       1 UNK         0.0000 
     24 H24         1.0185   -2.2101   -4.4779 H         1 UNK         0.0000 
     25 H25         0.3395   -0.8109   -3.9309 H         1 UNK         0.0000 
     26 H26         2.1832   -2.0450   -1.8672 H         1 UNK         0.0000 
     27 H27         2.8688   -1.8472   -3.4155 H         1 UNK         0.0000 
     28 H28         3.5727    0.1290   -2.5965 H         1 UNK         0.0000 
     29 H29         2.1490    0.7052   -3.4099 H         1 UNK         0.0000 
     30 H30         0.5885    3.4410   -2.1838 H         1 UNK         0.0000 
     31 H31         4.6935    3.9456   -3.0509 H         1 UNK         0.0000 
     32 H32         4.3286    2.2549   -2.7600 H         1 UNK         0.0000 
     33 H33         4.3291    3.4089   -1.4154 H         1 UNK         0.0000 
     34 H34         1.3921    5.2000   -3.3546 H         1 UNK         0.0000 
     35 H35         3.0398    5.3297   -3.9084 H         1 UNK         0.0000 
     36 H36         1.0225    3.1965   -4.8371 H         1 UNK         0.0000 
     37 H37         2.6402    3.3897   -5.4918 H         1 UNK         0.0000 
     38 H38         1.6994    5.6981   -5.8888 H         1 UNK         0.0000 
     39 O39         0.1852    0.4775    1.9934 O.co2     1 UNK         0.0000 
     40 C40         0.6672    1.3624    2.7417 C.2       1 UNK         0.0000 
     41 O41         1.5845    1.0989    3.5548 O.co2     1 UNK         0.0000 
     42 C42         0.3025    2.8768    2.6929 C.3       1 UNK         0.0000 
     43 H43         0.0781    3.1760    3.7271 H         1 UNK         0.0000 
     44 N44         1.6746    3.4945    2.4427 N.4       1 UNK         0.0000 
     45 H45         2.2641    3.2451    3.2364 H         1 UNK         0.0000 
     46 H46         1.6535    4.4906    2.3179 H         1 UNK         0.0000 
     47 H47         2.0440    3.0495    1.6089 H         1 UNK         0.0000 
     48 C48        -0.7825    3.5095    1.7187 C.3       1 UNK         0.0000 
     49 C49        -2.1154    2.7553    1.4243 C.3       1 UNK         0.0000 
     50 C50        -2.5073    2.5253   -0.1041 C.3       1 UNK         0.0000 
     51 N51        -2.0575    1.2506   -0.7373 N.am      1 UNK         0.0000 
     52 O52        -2.1649    0.1992    0.0649 O.co2     1 UNK         0.0000 
     53 C53        -1.4966    1.0791   -1.9632 C.2       1 UNK         0.0000 
     54 O54        -0.7744    0.0785   -2.0900 O.co2     1 UNK         0.0000 
     55 C55        -1.5186    2.0470   -3.0151 C.2       1 UNK         0.0000 
     56 C56        -2.5556    2.6850   -3.6015 C.2       1 UNK         0.0000 
     57 C57        -4.0221    2.3850   -3.3498 C.3       1 UNK         0.0000 
     58 C58        -2.1972    3.7516   -4.6234 C.3       1 UNK         0.0000 
     59 C59        -1.7602    5.0427   -3.9179 C.3       1 UNK         0.0000 
     60 O60        -1.2277    5.9859   -4.8107 O.3       1 UNK         0.0000 
     61 H61        -1.0641    4.4687    2.1693 H         1 UNK         0.0000 
     62 H62        -0.3805    3.8863    0.7831 H         1 UNK         0.0000 
     63 H63        -2.2162    1.8423    2.0399 H         1 UNK         0.0000 
     64 H64        -2.9104    3.3898    1.8391 H         1 UNK         0.0000 
     65 H65        -3.6061    2.5308   -0.1375 H         1 UNK         0.0000 
     66 H66        -2.2121    3.3973   -0.7047 H         1 UNK         0.0000 
     67 H67        -0.5453    2.2616   -3.3801 H         1 UNK         0.0000 
     68 H68        -4.6563    2.9424   -4.0478 H         1 UNK         0.0000 
     69 H69        -4.3427    2.6523   -2.3420 H         1 UNK         0.0000 
     70 H70        -4.2348    1.3214   -3.5054 H         1 UNK         0.0000 
     71 H71        -1.3602    3.3700   -5.2039 H         1 UNK         0.0000 
     72 H72        -3.0067    3.9350   -5.3253 H         1 UNK         0.0000 
     73 H73        -0.9664    4.8210   -3.1983 H         1 UNK         0.0000 
     74 H74        -2.5899    5.4691   -3.3408 H         1 UNK         0.0000 
     75 H75        -1.6332    5.8828   -5.6809 H         1 UNK         0.0000 
@<TRIPOS>BOND
     1    1    2 nc   
     2    1   15 nc   
     3    1   17 nc   
     4    1   39 nc   
     5    1   52 nc   
     6    1   54 nc   
     7    2    3 1    
     8    3    4 2    
     9    3    5 1    
    10    5    6 1    
    11    5    7 1    
    12    5   11 1    
    13    7    8 1    
    14    7   10 1    
    15    7    9 1    
    16   11   12 1    
    17   11   24 1    
    18   11   25 1    
    19   12   13 1    
    20   12   26 1    
    21   12   27 1    
    22   13   28 1    
    23   13   14 1    
    24   13   29 1    
    25   14   16 am   BACKBONE|DICT|INTERRES
    26   14   15 1    
    27   16   18 1    
    28   16   17 2    
    29   18   19 2    
    30   18   30 1    
    31   19   20 1    
    32   19   21 1    
    33   20   33 1    
    34   20   31 1    
    35   20   32 1    
    36   21   34 1    
    37   21   22 1    
    38   21   35 1    
    39   22   36 1    
    40   22   23 1    
    41   22   37 1    
    42   23   38 1    
    43   39   40 1    
    44   40   41 2    
    45   40   42 1    
    46   42   43 1    
    47   42   44 1    
    48   42   48 1    
    49   44   45 1    
    50   44   46 1    
    51   44   47 1    
    52   48   61 1    
    53   48   49 1    
    54   48   62 1    
    55   49   64 1    
    56   49   63 1    
    57   49   50 1    
    58   50   65 1    
    59   50   51 1    
    60   50   66 1    
    61   51   52 1    
    62   51   53 am   BACKBONE|DICT|INTERRES
    63   53   55 1    
    64   53   54 2    
    65   55   56 2    
    66   55   67 1    
    67   56   57 1    
    68   56   58 1    
    69   57   69 1    
    70   57   68 1    
    71   57   70 1    
    72   58   59 1    
    73   58   71 1    
    74   58   72 1    
    75   59   73 1    
    76   59   74 1    
    77   59   60 1    
    78   60   75 1    
@<TRIPOS>SUBSTRUCTURE
     1 UNK         1 GROUP             0       ****    0 ROOT    
