@<TRIPOS>MOLECULE
101_c1
89   93    1
SMALL
USER_CHARGES


@<TRIPOS>ATOM
      1 Fe1         0.4462   -0.8740   -0.1619 Fe        1 UNK         0.0000 
      2 O2          5.4254    4.2193   -1.6801 O.2       1 UNK         0.0000 
      3 C3          4.9712    3.7096   -0.6609 C.2       1 UNK         0.0000 
      4 O4          5.5710    3.7724    0.5562 O.3       1 UNK         0.0000 
      5 C5          3.6502    2.9263   -0.6265 C.3       1 UNK         0.0000 
      6 C6          3.6720    1.7237   -1.6089 C.3       1 UNK         0.0000 
      7 C7          2.4017    0.8653   -1.5112 C.2       1 UNK         0.0000 
      8 O8          2.3836   -0.1982   -0.8766 O.co2     1 UNK         0.0000 
      9 N9          1.1971    1.2343   -1.9979 N.am      1 UNK         0.0000 
     10 O10         0.1850    0.4030   -1.7990 O.co2     1 UNK         0.0000 
     11 C11         0.8595    2.5225   -2.6469 C.3       1 UNK         0.0000 
     12 C12        -0.1536    3.4272   -1.8801 C.3       1 UNK         0.0000 
     13 C13        -1.5843    2.8620   -1.7112 C.3       1 UNK         0.0000 
     14 C14        -2.6635    3.8712   -1.2568 C.3       1 UNK         0.0000 
     15 C15        -2.4822    4.4469    0.1608 C.3       1 UNK         0.0000 
     16 N16        -2.6803    3.4484    1.2161 N.am      1 UNK         0.0000 
     17 C17        -1.8341    3.1980    2.2267 C.2       1 UNK         0.0000 
     18 O18        -0.7383    3.7400    2.3424 O.2       1 UNK         0.0000 
     19 C19        -2.2983    2.1771    3.2815 C.3       1 UNK         0.0000 
     20 C20        -2.5477    0.7253    2.7833 C.3       1 UNK         0.0000 
     21 C21        -1.3548    0.1245    2.0251 C.2       1 UNK         0.0000 
     22 O22        -1.3548   -0.0973    0.8069 O.co2     1 UNK         0.0000 
     23 N23        -0.1602   -0.0855    2.6092 N.am      1 UNK         0.0000 
     24 O24         0.8437   -0.4032    1.8171 O.co2     1 UNK         0.0000 
     25 C25         0.0949   -0.2870    4.0397 C.3       1 UNK         0.0000 
     26 C26         0.4853   -1.7538    4.3408 C.3       1 UNK         0.0000 
     27 C27         0.5734   -2.1323    5.8322 C.3       1 UNK         0.0000 
     28 C28         0.9487   -3.6163    6.0728 C.3       1 UNK         0.0000 
     29 C29         0.1011   -4.6640    5.3131 C.3       1 UNK         0.0000 
     30 N30         0.6689   -5.0853    4.0277 N.am      1 UNK         0.0000 
     31 C31         0.0833   -5.0050    2.8241 C.2       1 UNK         0.0000 
     32 O32        -1.0008   -4.4675    2.6246 O.2       1 UNK         0.0000 
     33 C33         0.8001   -5.7004    1.6556 C.3       1 UNK         0.0000 
     34 C34         1.5629   -4.8065    0.6327 C.3       1 UNK         0.0000 
     35 C35         0.8795   -3.5483    0.0701 C.2       1 UNK         0.0000 
     36 O36         1.2734   -2.3878    0.2464 O.co2     1 UNK         0.0000 
     37 N37        -0.2229   -3.4989   -0.7123 N.am      1 UNK         0.0000 
     38 O38        -0.6234   -2.2679   -1.0430 O.co2     1 UNK         0.0000 
     39 C39        -0.9463   -4.6178   -1.3002 C.3       1 UNK         0.0000 
     40 C40        -0.3232   -5.0082   -2.6556 C.3       1 UNK         0.0000 
     41 C41        -1.0023   -6.1882   -3.3734 C.3       1 UNK         0.0000 
     42 C42        -2.4205   -5.8801   -3.8858 C.3       1 UNK         0.0000 
     43 N43        -2.9534   -7.0908   -4.6692 N.4       1 UNK         0.0000 
     44 H44        -2.9950   -7.9133   -4.0819 H         1 UNK         0.0000 
     45 H45        -2.3560   -7.2883   -5.4611 H         1 UNK         0.0000 
     46 H46        -3.8830   -6.8957   -5.0136 H         1 UNK         0.0000 
     47 H47         3.4465    2.5975    0.3985 H         1 UNK         0.0000 
     48 H48         2.8975    3.6619   -0.9153 H         1 UNK         0.0000 
     49 H49         4.4821    1.0443   -1.3333 H         1 UNK         0.0000 
     50 H50         3.7940    2.0407   -2.6447 H         1 UNK         0.0000 
     51 H51         0.4642    2.3062   -3.6449 H         1 UNK         0.0000 
     52 H52         1.7517    3.1177   -2.8422 H         1 UNK         0.0000 
     53 H53         0.2691    3.6762   -0.9061 H         1 UNK         0.0000 
     54 H54        -0.2218    4.3725   -2.4226 H         1 UNK         0.0000 
     55 H55        -1.5604    2.0407   -0.9923 H         1 UNK         0.0000 
     56 H56        -1.8970    2.4170   -2.6575 H         1 UNK         0.0000 
     57 H57        -2.7000    4.6925   -1.9729 H         1 UNK         0.0000 
     58 H58        -3.6457    3.4038   -1.3216 H         1 UNK         0.0000 
     59 H59        -3.1835    5.2655    0.3257 H         1 UNK         0.0000 
     60 H60        -1.4854    4.8920    0.2280 H         1 UNK         0.0000 
     61 H61        -3.5501    2.9410    1.2106 H         1 UNK         0.0000 
     62 H62        -3.2025    2.5663    3.7467 H         1 UNK         0.0000 
     63 H63        -1.5932    2.1578    4.1139 H         1 UNK         0.0000 
     64 H64        -2.7720    0.0862    3.6355 H         1 UNK         0.0000 
     65 H65        -3.4630    0.6743    2.1961 H         1 UNK         0.0000 
     66 H66         0.8834    0.3995    4.3448 H         1 UNK         0.0000 
     67 H67        -0.7620   -0.0090    4.6541 H         1 UNK         0.0000 
     68 H68        -0.2703   -2.3773    3.8677 H         1 UNK         0.0000 
     69 H69         1.4358   -1.9764    3.8550 H         1 UNK         0.0000 
     70 H70         1.3102   -1.4958    6.3262 H         1 UNK         0.0000 
     71 H71        -0.3875   -1.9238    6.3046 H         1 UNK         0.0000 
     72 H72         2.0073   -3.7776    5.8684 H         1 UNK         0.0000 
     73 H73         0.8413   -3.8035    7.1429 H         1 UNK         0.0000 
     74 H74        -0.9317   -4.3142    5.2209 H         1 UNK         0.0000 
     75 H75         0.0241   -5.5633    5.9213 H         1 UNK         0.0000 
     76 H76         1.5510   -5.5631    4.0682 H         1 UNK         0.0000 
     77 H77         0.0786   -6.3271    1.1323 H         1 UNK         0.0000 
     78 H78         1.5029   -6.4400    2.0416 H         1 UNK         0.0000 
     79 H79         2.5116   -4.4928    1.0680 H         1 UNK         0.0000 
     80 H80         1.8710   -5.4194   -0.2113 H         1 UNK         0.0000 
     81 H81        -0.9810   -5.4799   -0.6290 H         1 UNK         0.0000 
     82 H82        -1.9941   -4.3297   -1.4213 H         1 UNK         0.0000 
     83 H83         0.7227   -5.2677   -2.4758 H         1 UNK         0.0000 
     84 H84        -0.3125   -4.1287   -3.3014 H         1 UNK         0.0000 
     85 H85        -1.0175   -7.0456   -2.6989 H         1 UNK         0.0000 
     86 H86        -0.3654   -6.4616   -4.2141 H         1 UNK         0.0000 
     87 H87        -3.1371   -5.7054   -3.0787 H         1 UNK         0.0000 
     88 H88        -2.4367   -5.0490   -4.5964 H         1 UNK         0.0000 
     89 H89         5.0482    3.3101    1.2103 H         1 UNK         0.0000 
@<TRIPOS>BOND
     1    1    8 nc   
     2    1   10 nc   
     3    1   22 nc   
     4    1   24 nc   
     5    1   36 nc   
     6    1   38 nc   
     7    2    3 2    
     8    3    5 1    
     9    3    4 1    
    10    4   89 1    
    11    5   47 1    
    12    5    6 1    
    13    5   48 1    
    14    6   49 1    
    15    6    7 1    
    16    6   50 1    
    17    7    8 2    
    18    7    9 am   BACKBONE|DICT|INTERRES
    19    9   10 1    
    20    9   11 1    
    21   11   12 1    
    22   11   51 1    
    23   11   52 1    
    24   12   13 1    
    25   12   53 1    
    26   12   54 1    
    27   13   14 1    
    28   13   55 1    
    29   13   56 1    
    30   14   15 1    
    31   14   57 1    
    32   14   58 1    
    33   15   60 1    
    34   15   59 1    
    35   15   16 1    
    36   16   17 am   BACKBONE|DICT|INTERRES
    37   16   61 1    
    38   17   18 2    
    39   17   19 1    
    40   19   62 1    
    41   19   63 1    
    42   19   20 1    
    43   20   64 1    
    44   20   21 1    
    45   20   65 1    
    46   21   23 am   BACKBONE|DICT|INTERRES
    47   21   22 2    
    48   23   25 1    
    49   23   24 1    
    50   25   26 1    
    51   25   66 1    
    52   25   67 1    
    53   26   27 1    
    54   26   68 1    
    55   26   69 1    
    56   27   28 1    
    57   27   71 1    
    58   27   70 1    
    59   28   73 1    
    60   28   29 1    
    61   28   72 1    
    62   29   75 1    
    63   29   30 1    
    64   29   74 1    
    65   30   76 1    
    66   30   31 am   BACKBONE|DICT|INTERRES
    67   31   32 2    
    68   31   33 1    
    69   33   78 1    
    70   33   34 1    
    71   33   77 1    
    72   34   79 1    
    73   34   35 1    
    74   34   80 1    
    75   35   36 2    
    76   35   37 am   BACKBONE|DICT|INTERRES
    77   37   38 1    
    78   37   39 1    
    79   39   81 1    
    80   39   40 1    
    81   39   82 1    
    82   40   83 1    
    83   40   41 1    
    84   40   84 1    
    85   41   85 1    
    86   41   42 1    
    87   41   86 1    
    88   42   87 1    
    89   42   43 1    
    90   42   88 1    
    91   43   44 1    
    92   43   45 1    
    93   43   46 1    
@<TRIPOS>SUBSTRUCTURE
     1 UNK         1 GROUP             0       ****    0 ROOT    
