@<TRIPOS>MOLECULE
041_c1
129   133    1
SMALL
USER_CHARGES


@<TRIPOS>ATOM
      1 O1         14.0837    5.1505   -3.1640 O.co2     1 UNK         0.0000 
      2 C2         13.2682    5.8731   -3.7563 C.2       1 UNK         0.0000 
      3 C3         12.3930    5.2828   -4.8606 C.3       1 UNK         0.0000 
      4 N4         13.1713    7.1718   -3.3653 N.am      1 UNK         0.0000 
      5 O5         13.9692    7.7221   -2.4412 O.co2     1 UNK         0.0000 
      6 C6         12.1369    8.0954   -3.8789 C.3       1 UNK         0.0000 
      7 C7         11.0958    8.5409   -2.8192 C.3       1 UNK         0.0000 
      8 C8         11.5735    9.5587   -1.7452 C.3       1 UNK         0.0000 
      9 C9         12.0117   10.9559   -2.2762 C.3       1 UNK         0.0000 
     10 H10        12.7281   10.8118   -3.0866 H         1 UNK         0.0000 
     11 C11        10.7780   11.7205   -2.8881 C.2       1 UNK         0.0000 
     12 O12        10.0059   12.2367   -2.0435 O.co2     1 UNK         0.0000 
     13 O13        10.6070   11.5389   -4.1152 O.co2     1 UNK         0.0000 
     14 N14        12.7079   11.7172   -1.2128 N.am      1 UNK         0.0000 
     15 C15        13.3862   12.8651   -1.3820 C.2       1 UNK         0.0000 
     16 O16        13.5527   13.4325   -2.4572 O.2       1 UNK         0.0000 
     17 C17        14.0732   13.4320   -0.1183 C.3       1 UNK         0.0000 
     18 H18        13.3319   13.4430    0.6787 H         1 UNK         0.0000 
     19 C19        14.6177   14.8766   -0.2674 C.3       1 UNK         0.0000 
     20 O20        13.5845   15.8440   -0.2855 O.3       1 UNK         0.0000 
     21 N21        15.1450   12.5402    0.3336 N.am      1 UNK         0.0000 
     22 C22        16.2519   12.2456   -0.3604 C.2       1 UNK         0.0000 
     23 O23        16.5649   12.7927   -1.4169 O.2       1 UNK         0.0000 
     24 C24        17.1988   11.1885    0.2362 C.3       1 UNK         0.0000 
     25 H25        17.5789   11.5627    1.1886 H         1 UNK         0.0000 
     26 C26        16.5287    9.8081    0.4272 C.3       1 UNK         0.0000 
     27 C27        15.3240    9.6335    1.3805 C.3       1 UNK         0.0000 
     28 C28        15.0506    8.1617    1.7982 C.3       1 UNK         0.0000 
     29 N29        14.7889    7.1978    0.7009 N.am      1 UNK         0.0000 
     30 O30        15.8195    7.0832   -0.1415 O.co2     1 UNK         0.0000 
     31 C31        13.6488    6.4676    0.5322 C.2       1 UNK         0.0000 
     32 O32        13.5865    5.7267   -0.4665 O.co2     1 UNK         0.0000 
     33 C33        12.4581    6.5064    1.4923 C.3       1 UNK         0.0000 
     34 N34        18.3113   11.0400   -0.6998 N.am      1 UNK         0.0000 
     35 C35        19.4592   10.4101   -0.4468 C.2       1 UNK         0.0000 
     36 O36        19.8282   10.0985    0.6832 O.2       1 UNK         0.0000 
     37 C37        20.3144   10.0067   -1.6578 C.3       1 UNK         0.0000 
     38 H38        19.8757   10.4495   -2.5525 H         1 UNK         0.0000 
     39 C39        20.3069    8.4720   -1.8810 C.3       1 UNK         0.0000 
     40 C40        18.9067    7.8367   -2.0068 C.3       1 UNK         0.0000 
     41 C41        18.9042    6.3310   -2.3728 C.3       1 UNK         0.0000 
     42 N42        17.5611    5.7183   -2.2994 N.am      1 UNK         0.0000 
     43 O43        16.6345    6.4277   -2.9566 O.co2     1 UNK         0.0000 
     44 C44        17.2313    4.6766   -1.4875 C.2       1 UNK         0.0000 
     45 O45        16.0212    4.5055   -1.2569 O.co2     1 UNK         0.0000 
     46 C46        18.2634    3.7617   -0.8256 C.3       1 UNK         0.0000 
     47 N47        21.6696   10.4861   -1.4210 N.am      1 UNK         0.0000 
     48 C48        22.3695   11.4092   -2.0998 C.2       1 UNK         0.0000 
     49 O49        23.4980   11.7100   -1.7305 O.2       1 UNK         0.0000 
     50 C50        21.7725   12.1048   -3.3270 C.3       1 UNK         0.0000 
     51 C51        20.6635   13.1281   -2.9931 C.3       1 UNK         0.0000 
     52 H52        19.7942   12.6253   -2.5701 H         1 UNK         0.0000 
     53 O53        20.2191   13.6928   -4.2073 O.3       1 UNK         0.0000 
     54 C54        21.0361   14.2498   -1.9928 C.3       1 UNK         0.0000 
     55 C55        22.3126   15.0743   -2.2756 C.3       1 UNK         0.0000 
     56 C56        22.2536   15.9248   -3.5601 C.3       1 UNK         0.0000 
     57 C57        23.3829   16.9638   -3.6734 C.3       1 UNK         0.0000 
     58 C58        24.7879   16.3466   -3.7635 C.3       1 UNK         0.0000 
     59 C59        25.8910   17.3792   -3.9049 C.2       1 UNK         0.0000 
     60 C60        27.2088   17.1151   -3.9603 C.2       1 UNK         0.0000 
     61 C61        27.8546   15.7402   -3.9006 C.3       1 UNK         0.0000 
     62 H62        12.6477    4.2407   -5.0332 H         1 UNK         0.0000 
     63 H63        11.3398    5.3343   -4.5926 H         1 UNK         0.0000 
     64 H64        12.5399    5.8188   -5.7960 H         1 UNK         0.0000 
     65 H65        12.6376    8.9677   -4.3082 H         1 UNK         0.0000 
     66 H66        11.5750    7.6856   -4.7195 H         1 UNK         0.0000 
     67 H67        10.7063    7.6487   -2.3320 H         1 UNK         0.0000 
     68 H68        10.2457    8.9812   -3.3459 H         1 UNK         0.0000 
     69 H69        12.3761    9.1161   -1.1564 H         1 UNK         0.0000 
     70 H70        10.7588    9.6944   -1.0306 H         1 UNK         0.0000 
     71 H71        12.5599   11.3636   -0.2847 H         1 UNK         0.0000 
     72 H72        15.2260   14.9922   -1.1675 H         1 UNK         0.0000 
     73 H73        15.2721   15.1146    0.5691 H         1 UNK         0.0000 
     74 H74        13.2264   15.8583   -1.1850 H         1 UNK         0.0000 
     75 H75        14.9673   12.0474    1.1937 H         1 UNK         0.0000 
     76 H76        17.3028    9.1093    0.7552 H         1 UNK         0.0000 
     77 H77        16.2088    9.4864   -0.5669 H         1 UNK         0.0000 
     78 H78        14.4187   10.0262    0.9201 H         1 UNK         0.0000 
     79 H79        15.4987   10.2104    2.2901 H         1 UNK         0.0000 
     80 H80        15.9359    7.7827    2.3174 H         1 UNK         0.0000 
     81 H81        14.2791    8.1904    2.5585 H         1 UNK         0.0000 
     82 H82        12.5804    7.1117    2.3847 H         1 UNK         0.0000 
     83 H83        12.2515    5.4916    1.8284 H         1 UNK         0.0000 
     84 H84        11.5759    6.8734    0.9680 H         1 UNK         0.0000 
     85 H85        18.0802   11.3788   -1.6273 H         1 UNK         0.0000 
     86 H86        20.8833    8.2576   -2.7834 H         1 UNK         0.0000 
     87 H87        20.8323    7.9882   -1.0551 H         1 UNK         0.0000 
     88 H88        18.3329    8.3819   -2.7590 H         1 UNK         0.0000 
     89 H89        18.3745    7.9466   -1.0607 H         1 UNK         0.0000 
     90 H90        19.3023    6.1998   -3.3820 H         1 UNK         0.0000 
     91 H91        19.6257    5.8404   -1.7208 H         1 UNK         0.0000 
     92 H92        17.9420    2.7234   -0.9090 H         1 UNK         0.0000 
     93 H93        18.3357    4.0086    0.2327 H         1 UNK         0.0000 
     94 H94        19.2542    3.8184   -1.2745 H         1 UNK         0.0000 
     95 H95        22.0811   10.1365   -0.5674 H         1 UNK         0.0000 
     96 H96        21.4168   11.3485   -4.0266 H         1 UNK         0.0000 
     97 H97        22.5846   12.6185   -3.8462 H         1 UNK         0.0000 
     98 H98        19.7896   13.0174   -4.7372 H         1 UNK         0.0000 
     99 H99        21.1478   13.7957   -1.0054 H         1 UNK         0.0000 
    100 H100       20.1836   14.9255   -1.8928 H         1 UNK         0.0000 
    101 H101       23.1787   14.4092   -2.3083 H         1 UNK         0.0000 
    102 H102       22.4776   15.7343   -1.4207 H         1 UNK         0.0000 
    103 H103       21.2946   16.4459   -3.5995 H         1 UNK         0.0000 
    104 H104       22.2755   15.2704   -4.4341 H         1 UNK         0.0000 
    105 H105       23.3343   17.6462   -2.8223 H         1 UNK         0.0000 
    106 H106       23.2036   17.5726   -4.5613 H         1 UNK         0.0000 
    107 Fe107      15.0355    6.1640   -1.7535 Fe        1 UNK         0.0000 
    108 H108       24.8421   15.6710   -4.6188 H         1 UNK         0.0000 
    109 H109       24.9995   15.7665   -2.8643 H         1 UNK         0.0000 
    110 H110       25.5761   18.4119   -3.9643 H         1 UNK         0.0000 
    111 H111       27.8953   17.9455   -4.0583 H         1 UNK         0.0000 
    112 H112       27.0971   14.9733   -3.7316 H         1 UNK         0.0000 
    113 H113       28.5191   15.7315   -3.0349 H         1 UNK         0.0000 
    114 C114       28.6487   15.4078   -5.1735 C.3       1 UNK         0.0000 
    115 H115       27.9797   15.4484   -6.0356 H         1 UNK         0.0000 
    116 C116       29.3280   14.0283   -5.1160 C.3       1 UNK         0.0000 
    117 H117       29.4041   16.1788   -5.3364 H         1 UNK         0.0000 
    118 H118       28.5681   13.2550   -4.9885 H         1 UNK         0.0000 
    119 H119       29.9694   13.9768   -4.2344 H         1 UNK         0.0000 
    120 C120       30.1610   13.7296   -6.3745 C.3       1 UNK         0.0000 
    121 H121       29.5139   13.7653   -7.2530 H         1 UNK         0.0000 
    122 C122       30.8694   12.3670   -6.3156 C.3       1 UNK         0.0000 
    123 H123       30.9052   14.5166   -6.5094 H         1 UNK         0.0000 
    124 H124       30.1311   11.5719   -6.1962 H         1 UNK         0.0000 
    125 H125       31.5139   12.3237   -5.4357 H         1 UNK         0.0000 
    126 C126       31.7119   12.0883   -7.5658 C.3       1 UNK         0.0000 
    127 H127       31.0961   12.0822   -8.4663 H         1 UNK         0.0000 
    128 H128       32.2019   11.1165   -7.4925 H         1 UNK         0.0000 
    129 H129       32.4898   12.8421   -7.6958 H         1 UNK         0.0000 
@<TRIPOS>BOND
     1    1    2 2    
     2    1  107 nc   
     3    2    3 1    
     4    2    4 am   BACKBONE|DICT|INTERRES
     5    3   62 1    
     6    3   63 1    
     7    3   64 1    
     8    4    5 1    
     9    4    6 1    
    10    5  107 nc   
    11    6    7 1    
    12    6   65 1    
    13    6   66 1    
    14    7    8 1    
    15    7   67 1    
    16    7   68 1    
    17    8    9 1    
    18    8   69 1    
    19    8   70 1    
    20    9   10 1    
    21    9   11 1    
    22    9   14 1    
    23   11   12 1    
    24   11   13 2    
    25   14   15 am   BACKBONE|DICT|INTERRES
    26   14   71 1    
    27   15   16 2    
    28   15   17 1    
    29   17   19 1    
    30   17   21 1    
    31   17   18 1    
    32   19   20 1    
    33   19   72 1    
    34   19   73 1    
    35   20   74 1    
    36   21   22 am   BACKBONE|DICT|INTERRES
    37   21   75 1    
    38   22   23 2    
    39   22   24 1    
    40   24   25 1    
    41   24   26 1    
    42   24   34 1    
    43   26   27 1    
    44   26   76 1    
    45   26   77 1    
    46   27   28 1    
    47   27   78 1    
    48   27   79 1    
    49   28   29 1    
    50   28   80 1    
    51   28   81 1    
    52   29   30 1    
    53   29   31 am   BACKBONE|DICT|INTERRES
    54   30  107 nc   
    55   31   32 2    
    56   31   33 1    
    57   32  107 nc   
    58   33   82 1    
    59   33   83 1    
    60   33   84 1    
    61   34   35 am   BACKBONE|DICT|INTERRES
    62   34   85 1    
    63   35   36 2    
    64   35   37 1    
    65   37   39 1    
    66   37   47 1    
    67   37   38 1    
    68   39   40 1    
    69   39   86 1    
    70   39   87 1    
    71   40   41 1    
    72   40   88 1    
    73   40   89 1    
    74   41   42 1    
    75   41   90 1    
    76   41   91 1    
    77   42   43 1    
    78   42   44 am   BACKBONE|DICT|INTERRES
    79   43  107 nc   
    80   44   45 2    
    81   44   46 1    
    82   45  107 nc   
    83   46   92 1    
    84   46   93 1    
    85   46   94 1    
    86   47   48 am   BACKBONE|DICT|INTERRES
    87   47   95 1    
    88   48   49 2    
    89   48   50 1    
    90   50   96 1    
    91   50   97 1    
    92   50   51 1    
    93   51   53 1    
    94   51   54 1    
    95   51   52 1    
    96   53   98 1    
    97   54   55 1    
    98   54   99 1    
    99   54  100 1    
   100   55   56 1    
   101   55  101 1    
   102   55  102 1    
   103   56   57 1    
   104   56  103 1    
   105   56  104 1    
   106   57   58 1    
   107   57  105 1    
   108   57  106 1    
   109   58   59 1    
   110   58  108 1    
   111   58  109 1    
   112   59   60 2    
   113   59  110 1    
   114   60   61 1    
   115   60  111 1    
   116   61  112 1    
   117   61  113 1    
   118   61  114 1    
   119  114  115 1    
   120  114  116 1    
   121  114  117 1    
   122  116  118 1    
   123  116  119 1    
   124  116  120 1    
   125  120  121 1    
   126  120  122 1    
   127  120  123 1    
   128  122  124 1    
   129  122  125 1    
   130  122  126 1    
   131  126  127 1    
   132  126  128 1    
   133  126  129 1    
@<TRIPOS>SUBSTRUCTURE
     1 UNK         1 GROUP             0       ****    0 ROOT    
