@<TRIPOS>MOLECULE
069_c1
97   102    1
SMALL
USER_CHARGES


@<TRIPOS>ATOM
      1 Fe1         0.0000    0.0000    0.0000 Fe        1 UNK         0.0000 
      2 C2          5.6759    0.8710   -1.2753 C.3       1 UNK         0.0000 
      3 C3          4.8276    0.7168   -0.0100 C.3       1 UNK         0.0000 
      4 C4          5.6822    0.8893    1.2488 C.3       1 UNK         0.0000 
      5 C5          3.7019    1.7307   -0.0143 C.2       1 UNK         0.0000 
      6 N6          4.0138    3.0514   -0.0254 N.2       1 UNK         0.0000 
      7 C7          3.0707    4.0198   -0.0315 C.2       1 UNK         0.0000 
      8 C8          1.7095    3.6819   -0.0245 C.2       1 UNK         0.0000 
      9 N9          1.3505    2.3561   -0.0104 N.2       1 UNK         0.0000 
     10 O10         0.0000    2.0800    0.0000 O.co2     1 UNK         0.0000 
     11 C11         2.3494    1.3458   -0.0073 C.2       1 UNK         0.0000 
     12 O12         2.0763    0.1243    0.0000 O.co2     1 UNK         0.0000 
     13 C13         0.6533    4.7927   -0.0362 C.3       1 UNK         0.0000 
     14 H14        -0.3662    4.3548   -0.0345 H         1 UNK         0.0000 
     15 C15         0.7707    5.6161   -1.3300 C.3       1 UNK         0.0000 
     16 C16         0.7702    5.6581    1.2414 C.3       1 UNK         0.0000 
     17 C17        -0.3353    6.7088    1.3725 C.3       1 UNK         0.0000 
     18 H18         6.4885    0.1143   -1.2847 H         1 UNK         0.0000 
     19 H19         5.0434    0.7151   -2.1759 H         1 UNK         0.0000 
     20 H20         6.1305    1.8837   -1.3287 H         1 UNK         0.0000 
     21 H21         4.4267   -0.3196   -0.0012 H         1 UNK         0.0000 
     22 H22         6.1371    1.9026    1.2853 H         1 UNK         0.0000 
     23 H23         5.0542    0.7464    2.1547 H         1 UNK         0.0000 
     24 H24         6.4949    0.1328    1.2651 H         1 UNK         0.0000 
     25 H25         3.3857    5.0542   -0.0425 H         1 UNK         0.0000 
     26 H26        -0.0403    6.3689   -1.4015 H         1 UNK         0.0000 
     27 H27         1.7465    6.1416   -1.3879 H         1 UNK         0.0000 
     28 H28         0.6721    4.9456   -2.2105 H         1 UNK         0.0000 
     29 H29         0.6934    4.9863    2.1247 H         1 UNK         0.0000 
     30 H30         1.7550    6.1704    1.2793 H         1 UNK         0.0000 
     31 H31        -0.2814    7.4575    0.5566 H         1 UNK         0.0000 
     32 H32        -1.3343    6.2229    1.3630 H         1 UNK         0.0000 
     33 H33        -0.2162    7.2503    2.3347 H         1 UNK         0.0000 
     34 C34        -1.1488   -0.8268    5.7174 C.3       1 UNK         0.0000 
     35 C35         0.0857   -0.6443    4.8291 C.3       1 UNK         0.0000 
     36 C36         1.3728   -0.7696    5.6504 C.3       1 UNK         0.0000 
     37 C37         0.0791   -1.6708    3.7128 C.2       1 UNK         0.0000 
     38 N38         0.1171   -2.9865    4.0394 N.2       1 UNK         0.0000 
     39 C39         0.1137   -3.9651    3.1080 C.2       1 UNK         0.0000 
     40 C40         0.0712   -3.6458    1.7433 C.2       1 UNK         0.0000 
     41 N41         0.0344   -2.3263    1.3622 N.2       1 UNK         0.0000 
     42 O42         0.0000   -2.0800    0.0000 O.co2     1 UNK         0.0000 
     43 C43         0.0354   -1.3020    2.3557 C.2       1 UNK         0.0000 
     44 O44         0.0000   -0.0812    2.0784 O.co2     1 UNK         0.0000 
     45 C45         0.0640   -4.7727    0.7059 C.3       1 UNK         0.0000 
     46 H46         0.0219   -4.3537   -0.3202 H         1 UNK         0.0000 
     47 C47        -1.1995   -5.6324    0.8757 C.3       1 UNK         0.0000 
     48 C48         1.3723   -5.5927    0.7994 C.3       1 UNK         0.0000 
     49 C49         1.5055   -6.6550   -0.2939 C.3       1 UNK         0.0000 
     50 H50        -1.1563   -0.0639    6.5244 H         1 UNK         0.0000 
     51 H51        -2.0723   -0.7027    5.1116 H         1 UNK         0.0000 
     52 H52        -1.1585   -1.8364    6.1818 H         1 UNK         0.0000 
     53 H53         0.0516    0.3887    4.4202 H         1 UNK         0.0000 
     54 H54         1.4530   -1.7770    6.1125 H         1 UNK         0.0000 
     55 H55         2.2564   -0.6042    4.9968 H         1 UNK         0.0000 
     56 H56         1.3884   -0.0061    6.4569 H         1 UNK         0.0000 
     57 H57         0.1437   -4.9944    3.4378 H         1 UNK         0.0000 
     58 H58        -1.2711   -6.4009    0.0800 H         1 UNK         0.0000 
     59 H59        -1.2132   -6.1415    1.8617 H         1 UNK         0.0000 
     60 H60        -2.1024   -4.9899    0.7922 H         1 UNK         0.0000 
     61 H61         2.2300   -4.8931    0.6864 H         1 UNK         0.0000 
     62 H62         1.4557   -6.0871    1.7905 H         1 UNK         0.0000 
     63 H63         0.7157   -7.4278   -0.2048 H         1 UNK         0.0000 
     64 H64         1.4511   -6.1843   -1.2986 H         1 UNK         0.0000 
     65 H65         2.4879   -7.1629   -0.1950 H         1 UNK         0.0000 
     66 C66        -0.7109   -1.3297   -5.6657 C.3       1 UNK         0.0000 
     67 C67        -0.5893   -0.0523   -4.8290 C.3       1 UNK         0.0000 
     68 C68        -0.7611    1.1927   -5.7048 C.3       1 UNK         0.0000 
     69 C69        -1.6248   -0.0559   -3.7207 C.2       1 UNK         0.0000 
     70 N70        -2.9375   -0.0874   -4.0593 N.2       1 UNK         0.0000 
     71 C71        -3.9240   -0.0945   -3.1369 C.2       1 UNK         0.0000 
     72 C72        -3.6184   -0.0663   -1.7684 C.2       1 UNK         0.0000 
     73 N73        -2.3034   -0.0300   -1.3705 N.2       1 UNK         0.0000 
     74 O74        -2.0800    0.0000    0.0000 O.co2     1 UNK         0.0000 
     75 C75        -1.2672   -0.0259   -2.3600 C.2       1 UNK         0.0000 
     76 O76        -0.0449    0.0000   -2.0795 O.co2     1 UNK         0.0000 
     77 C77        -4.7588   -0.0789   -0.7457 C.3       1 UNK         0.0000 
     78 H78        -4.3543   -0.0610    0.2867 H         1 UNK         0.0000 
     79 C79        -5.5632   -1.3834   -0.8739 C.3       1 UNK         0.0000 
     80 C80        -5.6302    1.1891   -0.9054 C.3       1 UNK         0.0000 
     81 C81        -6.7142    1.3233    0.1657 C.3       1 UNK         0.0000 
     82 H82         0.0590   -1.3381   -6.4663 H         1 UNK         0.0000 
     83 H83        -0.5527   -2.2209   -5.0209 H         1 UNK         0.0000 
     84 H84        -1.7147   -1.4023   -6.1368 H         1 UNK         0.0000 
     85 H85         0.4408   -0.0252   -4.4125 H         1 UNK         0.0000 
     86 H86        -1.7668    1.2106   -6.1771 H         1 UNK         0.0000 
     87 H87        -0.6389    2.1089   -5.0877 H         1 UNK         0.0000 
     88 H88         0.0083    1.2069   -6.5056 H         1 UNK         0.0000 
     89 H89        -4.9496   -0.1228   -3.4779 H         1 UNK         0.0000 
     90 H90        -6.3398   -1.4537   -0.0860 H         1 UNK         0.0000 
     91 H91        -6.0567   -1.4593   -1.8649 H         1 UNK         0.0000 
     92 H92        -4.8853   -2.2544   -0.7442 H         1 UNK         0.0000 
     93 H93        -4.9679    2.0789   -0.8187 H         1 UNK         0.0000 
     94 H94        -6.1118    1.2114   -1.9059 H         1 UNK         0.0000 
     95 H95        -7.4526    0.4992    0.0983 H         1 UNK         0.0000 
     96 H96        -6.2579    1.3298    1.1785 H         1 UNK         0.0000 
     97 H97        -7.2598    2.2790    0.0183 H         1 UNK         0.0000 
@<TRIPOS>BOND
     1    1   10 nc   
     2    1   12 nc   
     3    1   42 nc   
     4    1   44 nc   
     5    1   74 nc   
     6    1   76 nc   
     7    2    3 1    
     8    2   18 1    
     9    2   19 1    
    10    2   20 1    
    11    3   21 1    
    12    3    4 1    
    13    3    5 1    
    14    4   24 1    
    15    4   22 1    
    16    4   23 1    
    17    5   11 2    
    18    5    6 1    
    19    6    7 2    
    20    7    8 1    
    21    7   25 1    
    22    8   13 1    
    23    8    9 2    
    24    9   11 1    
    25    9   10 1    
    26   11   12 1    
    27   13   14 1    
    28   13   16 1    
    29   13   15 1    
    30   15   26 1    
    31   15   27 1    
    32   15   28 1    
    33   16   30 1    
    34   16   17 1    
    35   16   29 1    
    36   17   33 1    
    37   17   31 1    
    38   17   32 1    
    39   34   52 1    
    40   34   50 1    
    41   34   35 1    
    42   34   51 1    
    43   35   36 1    
    44   35   37 1    
    45   35   53 1    
    46   36   54 1    
    47   36   56 1    
    48   36   55 1    
    49   37   38 1    
    50   37   43 2    
    51   38   39 2    
    52   39   57 1    
    53   39   40 1    
    54   40   45 1    
    55   40   41 2    
    56   41   43 1    
    57   41   42 1    
    58   43   44 1    
    59   45   46 1    
    60   45   48 1    
    61   45   47 1    
    62   47   59 1    
    63   47   58 1    
    64   47   60 1    
    65   48   62 1    
    66   48   49 1    
    67   48   61 1    
    68   49   63 1    
    69   49   65 1    
    70   49   64 1    
    71   66   83 1    
    72   66   67 1    
    73   66   82 1    
    74   66   84 1    
    75   67   85 1    
    76   67   69 1    
    77   67   68 1    
    78   68   87 1    
    79   68   86 1    
    80   68   88 1    
    81   69   75 2    
    82   69   70 1    
    83   70   71 2    
    84   71   72 1    
    85   71   89 1    
    86   72   73 2    
    87   72   77 1    
    88   73   74 1    
    89   73   75 1    
    90   75   76 1    
    91   77   78 1    
    92   77   79 1    
    93   77   80 1    
    94   79   92 1    
    95   79   90 1    
    96   79   91 1    
    97   80   93 1    
    98   80   81 1    
    99   80   94 1    
   100   81   96 1    
   101   81   95 1    
   102   81   97 1    
@<TRIPOS>SUBSTRUCTURE
     1 UNK         1 GROUP             0       ****    0 ROOT    
