@<TRIPOS>MOLECULE
107_c3
101   106    1
SMALL
USER_CHARGES


@<TRIPOS>ATOM
      1 Fe1         0.0536    0.8001    1.1071 Fe        1 UNK         0.0000 
      2 O2         -3.3277    4.7202    5.7572 O.2       1 UNK         0.0000 
      3 C3         -2.3589    4.5056    5.0386 C.2       1 UNK         0.0000 
      4 C4         -2.2968    5.1927    3.6572 C.3       1 UNK         0.0000 
      5 C5         -2.7518    4.3671    2.4163 C.3       1 UNK         0.0000 
      6 C6         -1.6579    3.4407    1.8939 C.2       1 UNK         0.0000 
      7 O7         -1.8708    2.2242    1.9424 O.co2     1 UNK         0.0000 
      8 N8         -0.4388    3.9341    1.5493 N.am      1 UNK         0.0000 
      9 O9          0.6402    3.1667    1.5079 O.co2     1 UNK         0.0000 
     10 C10        -0.1687    5.2676    0.9880 C.3       1 UNK         0.0000 
     11 C11         0.3630    5.1871   -0.4788 C.3       1 UNK         0.0000 
     12 C12         1.0179    6.4390   -1.0683 C.3       1 UNK         0.0000 
     13 C13         1.4876    6.2109   -2.5246 C.3       1 UNK         0.0000 
     14 C14         2.5832    5.1266   -2.7257 C.3       1 UNK         0.0000 
     15 N15         2.0824    3.7616   -2.9591 N.am      1 UNK         0.0000 
     16 C16         2.8267    2.6428   -2.8621 C.2       1 UNK         0.0000 
     17 O17         4.0032    2.6621   -2.5101 O.2       1 UNK         0.0000 
     18 C18         2.1930    1.3231   -3.3624 C.3       1 UNK         0.0000 
     19 C19         2.3558    0.0360   -2.5000 C.3       1 UNK         0.0000 
     20 C20         1.5451    0.0980   -1.2100 C.2       1 UNK         0.0000 
     21 O21         2.0293    0.7647   -0.2936 O.co2     1 UNK         0.0000 
     22 N22         0.3135   -0.4892   -1.0828 N.am      1 UNK         0.0000 
     23 O23        -0.6579    0.2185   -0.3149 O.co2     1 UNK         0.0000 
     24 C24        -0.3016   -1.4858   -1.9740 C.3       1 UNK         0.0000 
     25 C25        -1.6456   -2.1197   -1.4958 C.3       1 UNK         0.0000 
     26 C26        -2.2485   -3.1729   -2.4437 C.3       1 UNK         0.0000 
     27 N27        -1.4101   -4.3666   -2.5480 N.am      1 UNK         0.0000 
     28 C28        -1.8284   -5.6308   -2.4241 C.2       1 UNK         0.0000 
     29 O29        -3.0030   -5.9432   -2.2497 O.2       1 UNK         0.0000 
     30 C30        -0.7540   -6.7122   -2.5684 C.3       1 UNK         0.0000 
     31 C31        -0.9304   -7.9460   -1.6470 C.3       1 UNK         0.0000 
     32 C32        -0.5115   -7.7421   -0.1761 C.2       1 UNK         0.0000 
     33 O33         0.6717   -7.4926    0.0562 O.2       1 UNK         0.0000 
     34 N34        -1.4092   -7.9463    0.8238 N.am      1 UNK         0.0000 
     35 O35        -2.7730   -7.9338    0.4879 O.3       1 UNK         0.0000 
     36 C36        -1.1240   -7.9629    2.2636 C.3       1 UNK         0.0000 
     37 C37        -0.6503   -6.6322    2.8877 C.3       1 UNK         0.0000 
     38 C38        -1.6396   -5.4515    2.8167 C.3       1 UNK         0.0000 
     39 N39        -1.3522   -4.4494    3.8496 N.am      1 UNK         0.0000 
     40 C40        -0.4723   -3.4467    3.7281 C.2       1 UNK         0.0000 
     41 O41         0.1547   -3.2598    2.6913 O.2       1 UNK         0.0000 
     42 C42        -0.1839   -2.6070    4.9985 C.3       1 UNK         0.0000 
     43 C43        -0.6302   -1.1081    5.0536 C.3       1 UNK         0.0000 
     44 C44        -0.1283   -0.3101    3.8622 C.2       1 UNK         0.0000 
     45 O45        -0.7555   -0.4481    2.8068 O.co2     1 UNK         0.0000 
     46 N46         1.0260    0.3992    3.9147 N.am      1 UNK         0.0000 
     47 O47         1.7604    0.5735    2.8217 O.co2     1 UNK         0.0000 
     48 C48         1.5239    1.1742    5.0794 C.3       1 UNK         0.0000 
     49 C49         0.5214    2.1437    5.7852 C.3       1 UNK         0.0000 
     50 C50        -0.2333    3.1255    4.8665 C.3       1 UNK         0.0000 
     51 N51        -1.3714    3.7511    5.5381 N.am      1 UNK         0.0000 
     52 H52        -1.3564    5.7174    3.4971 H         1 UNK         0.0000 
     53 H53        -3.0378    5.9876    3.7270 H         1 UNK         0.0000 
     54 H54        -3.0078    5.0105    1.5714 H         1 UNK         0.0000 
     55 H55        -3.6664    3.8014    2.6239 H         1 UNK         0.0000 
     56 H56        -1.0199    5.9586    1.0377 H         1 UNK         0.0000 
     57 H57         0.6019    5.7322    1.6180 H         1 UNK         0.0000 
     58 H58         1.1209    4.4084   -0.5334 H         1 UNK         0.0000 
     59 H59        -0.4473    4.8473   -1.1200 H         1 UNK         0.0000 
     60 H60         0.3178    7.2716   -1.0220 H         1 UNK         0.0000 
     61 H61         1.8653    6.7300   -0.4461 H         1 UNK         0.0000 
     62 H62         0.6236    5.9925   -3.1525 H         1 UNK         0.0000 
     63 H63         1.8739    7.1608   -2.8940 H         1 UNK         0.0000 
     64 H64         3.2738    5.1469   -1.8781 H         1 UNK         0.0000 
     65 H65         3.1915    5.4063   -3.5879 H         1 UNK         0.0000 
     66 H66         1.0967    3.6537   -3.1286 H         1 UNK         0.0000 
     67 H67         2.7568    1.1172   -4.2663 H         1 UNK         0.0000 
     68 H68         1.1671    1.4365   -3.7083 H         1 UNK         0.0000 
     69 H69         2.0355   -0.8421   -3.0617 H         1 UNK         0.0000 
     70 H70         3.3972   -0.1660   -2.2598 H         1 UNK         0.0000 
     71 H71        -0.1916    0.5391    0.5710 H         1 UNK         0.0000 
     72 H72         0.4150   -2.2826   -2.1622 H         1 UNK         0.0000 
     73 H73        -0.4778   -1.0105   -2.9365 H         1 UNK         0.0000 
     74 H74        -1.5284   -2.5402   -0.4956 H         1 UNK         0.0000 
     75 H75        -2.3782   -1.3182   -1.3896 H         1 UNK         0.0000 
     76 H76        -2.3323   -2.7517   -3.4476 H         1 UNK         0.0000 
     77 H77        -3.2716   -3.4011   -2.1341 H         1 UNK         0.0000 
     78 H78        -0.4281   -4.2067   -2.6909 H         1 UNK         0.0000 
     79 H79        -0.8800   -7.0660   -3.5918 H         1 UNK         0.0000 
     80 H80         0.2698   -6.3332   -2.5514 H         1 UNK         0.0000 
     81 H81        -0.2308   -8.7009   -2.0045 H         1 UNK         0.0000 
     82 H82        -1.8942   -8.4363   -1.7937 H         1 UNK         0.0000 
     83 H83        -3.0099   -8.8645    0.4779 H         1 UNK         0.0000 
     84 H84        -2.0311   -8.2729    2.7869 H         1 UNK         0.0000 
     85 H85        -0.3908   -8.7447    2.4675 H         1 UNK         0.0000 
     86 H86         0.3046   -6.3331    2.4523 H         1 UNK         0.0000 
     87 H87        -0.4265   -6.8327    3.9353 H         1 UNK         0.0000 
     88 H88        -2.6558   -5.8093    2.9852 H         1 UNK         0.0000 
     89 H89        -1.6580   -5.0286    1.8081 H         1 UNK         0.0000 
     90 H90        -1.8121   -4.5467    4.7357 H         1 UNK         0.0000 
     91 H91        -0.6397   -3.0993    5.8523 H         1 UNK         0.0000 
     92 H92         0.8858   -2.6558    5.2023 H         1 UNK         0.0000 
     93 H93        -0.2701   -0.6531    5.9800 H         1 UNK         0.0000 
     94 H94        -1.7178   -1.0196    5.1175 H         1 UNK         0.0000 
     95 H95         1.9738    0.4803    5.7997 H         1 UNK         0.0000 
     96 H96         2.3606    1.8217    4.7684 H         1 UNK         0.0000 
     97 H97        -0.1889    1.5583    6.3650 H         1 UNK         0.0000 
     98 H98         1.0778    2.7252    6.5173 H         1 UNK         0.0000 
     99 H99        -0.6126    2.5141    4.0630 H         1 UNK         0.0000 
    100 H100        0.4358    3.8419    4.3869 H         1 UNK         0.0000 
    101 H101       -1.5469    3.4560    6.4820 H         1 UNK         0.0000 
@<TRIPOS>BOND
     1    1    7 nc   
     2    1    9 nc   
     3    1   21 nc   
     4    1   23 nc   
     5    1   45 nc   
     6    1   47 nc   
     7    2    3 2    
     8    3   51 am   BACKBONE|DICT|INTERRES
     9    3    4 1    
    10    4    5 1    
    11    4   52 1    
    12    4   53 1    
    13    5   55 1    
    14    5    6 1    
    15    5   54 1    
    16    6    7 2    
    17    6    8 am   BACKBONE|DICT|INTERRES
    18    8    9 1    
    19    8   10 1    
    20   10   56 1    
    21   10   57 1    
    22   10   11 1    
    23   11   12 1    
    24   11   58 1    
    25   11   59 1    
    26   12   60 1    
    27   12   61 1    
    28   12   13 1    
    29   13   14 1    
    30   13   62 1    
    31   13   63 1    
    32   14   64 1    
    33   14   15 1    
    34   14   65 1    
    35   15   16 am   BACKBONE|DICT|INTERRES
    36   15   66 1    
    37   16   17 2    
    38   16   18 1    
    39   18   19 1    
    40   18   67 1    
    41   18   68 1    
    42   19   70 1    
    43   19   20 1    
    44   19   69 1    
    45   20   22 am   BACKBONE|DICT|INTERRES
    46   20   21 2    
    47   22   23 1    
    48   22   24 1    
    49   23   71 1    
    50   24   25 1    
    51   24   72 1    
    52   24   73 1    
    53   25   75 1    
    54   25   74 1    
    55   25   26 1    
    56   26   77 1    
    57   26   27 1    
    58   26   76 1    
    59   27   28 am   BACKBONE|DICT|INTERRES
    60   27   78 1    
    61   28   29 2    
    62   28   30 1    
    63   30   31 1    
    64   30   79 1    
    65   30   80 1    
    66   31   32 1    
    67   31   81 1    
    68   31   82 1    
    69   32   33 2    
    70   32   34 am   BACKBONE|DICT|INTERRES
    71   34   36 1    
    72   34   35 1    
    73   35   83 1    
    74   36   85 1    
    75   36   84 1    
    76   36   37 1    
    77   37   87 1    
    78   37   38 1    
    79   37   86 1    
    80   38   88 1    
    81   38   39 1    
    82   38   89 1    
    83   39   90 1    
    84   39   40 am   BACKBONE|DICT|INTERRES
    85   40   42 1    
    86   40   41 2    
    87   42   92 1    
    88   42   91 1    
    89   42   43 1    
    90   43   93 1    
    91   43   44 1    
    92   43   94 1    
    93   44   46 am   BACKBONE|DICT|INTERRES
    94   44   45 2    
    95   46   48 1    
    96   46   47 1    
    97   48   95 1    
    98   48   49 1    
    99   48   96 1    
   100   49   97 1    
   101   49   98 1    
   102   49   50 1    
   103   50   51 1    
   104   50   99 1    
   105   50  100 1    
   106   51  101 1    
@<TRIPOS>SUBSTRUCTURE
     1 UNK         1 GROUP             0       ****    0 ROOT    
