@<TRIPOS>MOLECULE
215_c1
83   92    1
SMALL
USER_CHARGES


@<TRIPOS>ATOM
      1 Fe1        -0.0005    0.3381   -0.3376 Fe        1 UNK         0.0000 
      2 C2         -1.8466   -7.0339   -0.9650 C.ar      1 UNK         0.0000 
      3 N3         -2.0386   -7.9262   -1.9878 N.pl3     1 UNK         0.0000 
      4 H4         -2.9077   -8.3644   -2.2828 H         1 UNK         0.0000 
      5 C5         -0.7981   -8.1299   -2.5200 C.ar      1 UNK         0.0000 
      6 N6          0.1309   -7.4338   -1.9099 N.2       1 UNK         0.0000 
      7 C7         -0.4805   -6.7634   -0.9398 C.ar      1 UNK         0.0000 
      8 C8          0.3111   -5.9014    0.0207 C.3       1 UNK         0.0000 
      9 C9          1.1023   -4.7707   -0.6660 C.3       1 UNK         0.0000 
     10 N10         1.6664   -3.8108    0.2970 N.am      1 UNK         0.0000 
     11 O11         2.6344   -4.2841    1.1907 O.3       1 UNK         0.0000 
     12 C12         3.1841   -3.1576    1.8713 C.3       1 UNK         0.0000 
     13 H13         3.4437   -3.4571    2.8932 H         1 UNK         0.0000 
     14 C14         4.4558   -2.7105    1.1356 C.3       1 UNK         0.0000 
     15 C15         2.0434   -2.1472    1.8508 C.3       1 UNK         0.0000 
     16 H16         1.3610   -2.4264    2.6530 H         1 UNK         0.0000 
     17 C17         1.2680   -2.5603    0.5818 C.2       1 UNK         0.0000 
     18 O18         0.4358   -1.8798   -0.0484 O.co2     1 UNK         0.0000 
     19 N19         2.4127   -0.6960    2.0379 N.am      1 UNK         0.0000 
     20 C20         2.4354    0.3115    1.1298 C.2       1 UNK         0.0000 
     21 O21         2.2618    0.0902   -0.0750 O.co2     1 UNK         0.0000 
     22 C22         2.2157    1.7347    1.6397 C.ar      1 UNK         0.0000 
     23 C23         1.3185    2.6530    1.0138 C.ar      1 UNK         0.0000 
     24 O24         0.6131    2.4150   -0.0219 O.co2     1 UNK         0.0000 
     25 C25         1.1577    3.9330    1.5418 C.ar      1 UNK         0.0000 
     26 C26         1.8887    4.3561    2.6408 C.ar      1 UNK         0.0000 
     27 C27         2.7808    3.4839    3.2490 C.ar      1 UNK         0.0000 
     28 C28         2.9367    2.1775    2.7675 C.ar      1 UNK         0.0000 
     29 H29        -2.6699   -6.7071   -0.3424 H         1 UNK         0.0000 
     30 H30        -0.3457   -5.4754    0.7797 H         1 UNK         0.0000 
     31 H31         1.0109   -6.5438    0.5574 H         1 UNK         0.0000 
     32 H32         1.9007   -5.1963   -1.2827 H         1 UNK         0.0000 
     33 H33         0.4482   -4.2368   -1.3543 H         1 UNK         0.0000 
     34 H34         4.2456   -2.4087    0.1068 H         1 UNK         0.0000 
     35 H35         5.2122   -3.4963    1.1134 H         1 UNK         0.0000 
     36 H36         4.8839   -1.8512    1.6467 H         1 UNK         0.0000 
     37 H37         2.6194   -0.4449    2.9951 H         1 UNK         0.0000 
     38 H38         0.4635    4.6296    1.0864 H         1 UNK         0.0000 
     39 H39         1.7729    5.3720    2.9936 H         1 UNK         0.0000 
     40 H40         3.3721    3.8256    4.0834 H         1 UNK         0.0000 
     41 H41         3.6468    1.5276    3.2645 H         1 UNK         0.0000 
     42 C42         1.8487    0.9478    7.0380 C.ar      1 UNK         0.0000 
     43 N43         2.0423    1.9681    7.9329 N.pl3     1 UNK         0.0000 
     44 H44         2.9127    2.2622    8.3695 H         1 UNK         0.0000 
     45 C45         0.8020    2.4990    8.1406 C.ar      1 UNK         0.0000 
     46 N46        -0.1282    1.8911    7.4444 N.2       1 UNK         0.0000 
     47 C47         0.4826    0.9235    6.7690 C.ar      1 UNK         0.0000 
     48 C48        -0.3103   -0.0330    5.9038 C.3       1 UNK         0.0000 
     49 C49        -1.0998    0.6584    4.7747 C.3       1 UNK         0.0000 
     50 N50        -1.6658   -0.3009    3.8122 N.am      1 UNK         0.0000 
     51 O51        -2.6338   -1.1954    4.2843 O.3       1 UNK         0.0000 
     52 C52        -3.1838   -1.8742    3.1570 C.3       1 UNK         0.0000 
     53 H53        -3.4430   -2.8966    3.4550 H         1 UNK         0.0000 
     54 C54        -4.4556   -1.1379    2.7114 C.3       1 UNK         0.0000 
     55 C55        -2.0434   -1.8521    2.1464 C.3       1 UNK         0.0000 
     56 H56        -1.3602   -2.6538    2.4248 H         1 UNK         0.0000 
     57 C57        -1.2686   -0.5829    2.5606 C.2       1 UNK         0.0000 
     58 O58        -0.4371    0.0488    1.8804 O.co2     1 UNK         0.0000 
     59 N59        -2.4132   -2.0386    0.6952 N.am      1 UNK         0.0000 
     60 C60        -2.4358   -1.1301   -0.3118 C.2       1 UNK         0.0000 
     61 O61        -2.2626    0.0746   -0.0902 O.co2     1 UNK         0.0000 
     62 C62        -2.2156   -1.6400   -1.7349 C.ar      1 UNK         0.0000 
     63 C63        -1.3174   -1.0145   -2.6525 C.ar      1 UNK         0.0000 
     64 O64        -0.6132    0.0220   -2.4147 O.co2     1 UNK         0.0000 
     65 C65        -1.1553   -1.5432   -3.9321 C.ar      1 UNK         0.0000 
     66 C66        -1.8857   -2.6427   -4.3551 C.ar      1 UNK         0.0000 
     67 C67        -2.7788   -3.2504   -3.4836 C.ar      1 UNK         0.0000 
     68 C68        -2.9358   -2.7683   -2.1776 C.ar      1 UNK         0.0000 
     69 H69         2.6717    0.3274    6.7060 H         1 UNK         0.0000 
     70 H70         0.3452   -0.7919    5.4755 H         1 UNK         0.0000 
     71 H71        -1.0113   -0.5708    6.5440 H         1 UNK         0.0000 
     72 H72        -1.8968    1.2758    5.2021 H         1 UNK         0.0000 
     73 H73        -0.4441    1.3468    4.2428 H         1 UNK         0.0000 
     74 H74        -4.2457   -0.1086    2.4112 H         1 UNK         0.0000 
     75 H75        -5.2119   -1.1170    3.4975 H         1 UNK         0.0000 
     76 H76        -4.8839   -1.6477    1.8514 H         1 UNK         0.0000 
     77 H77        -2.6196   -2.9955    0.4427 H         1 UNK         0.0000 
     78 H78        -0.4607   -1.0878   -4.6283 H         1 UNK         0.0000 
     79 H79        -1.7691   -2.9958   -5.3708 H         1 UNK         0.0000 
     80 H80        -3.3697   -4.0851   -3.8253 H         1 UNK         0.0000 
     81 H81        -3.6468   -3.2646   -1.5281 H         1 UNK         0.0000 
     82 H82        -0.6632   -8.8174   -3.3483 H         1 UNK         0.0000 
     83 H83         0.6669    3.3254    8.8307 H         1 UNK         0.0000 
@<TRIPOS>BOND
     1    1   18 nc   
     2    1   21 nc   
     3    1   24 nc   
     4    1   58 nc   
     5    1   61 nc   
     6    1   64 nc   
     7    2    7 ar   
     8    2   29 1    
     9    2    3 ar   
    10    3    4 1    
    11    3    5 ar   
    12    5    6 ar   
    13    5   82 1    
    14    6    7 ar   
    15    7    8 1    
    16    8   31 1    
    17    8   30 1    
    18    8    9 1    
    19    9   10 1    
    20    9   32 1    
    21    9   33 1    
    22   10   17 am   BACKBONE|DICT|INTERRES
    23   10   11 1    
    24   11   12 1    
    25   12   13 1    
    26   12   14 1    
    27   12   15 1    
    28   14   35 1    
    29   14   36 1    
    30   14   34 1    
    31   15   19 1    
    32   15   16 1    
    33   15   17 1    
    34   17   18 2    
    35   19   37 1    
    36   19   20 am   BACKBONE|DICT|INTERRES
    37   20   22 1    
    38   20   21 2    
    39   22   28 ar   
    40   22   23 ar   
    41   23   25 ar   
    42   23   24 1    
    43   25   26 ar   
    44   25   38 1    
    45   26   39 1    
    46   26   27 ar   
    47   27   40 1    
    48   27   28 ar   
    49   28   41 1    
    50   42   43 ar   
    51   42   47 ar   
    52   42   69 1    
    53   43   45 ar   
    54   43   44 1    
    55   45   46 ar   
    56   45   83 1    
    57   46   47 ar   
    58   47   48 1    
    59   48   71 1    
    60   48   49 1    
    61   48   70 1    
    62   49   72 1    
    63   49   50 1    
    64   49   73 1    
    65   50   51 1    
    66   50   57 am   BACKBONE|DICT|INTERRES
    67   51   52 1    
    68   52   53 1    
    69   52   54 1    
    70   52   55 1    
    71   54   75 1    
    72   54   74 1    
    73   54   76 1    
    74   55   56 1    
    75   55   57 1    
    76   55   59 1    
    77   57   58 2    
    78   59   60 am   BACKBONE|DICT|INTERRES
    79   59   77 1    
    80   60   62 1    
    81   60   61 2    
    82   62   63 ar   
    83   62   68 ar   
    84   63   64 1    
    85   63   65 ar   
    86   65   66 ar   
    87   65   78 1    
    88   66   67 ar   
    89   66   79 1    
    90   67   68 ar   
    91   67   80 1    
    92   68   81 1    
@<TRIPOS>SUBSTRUCTURE
     1 UNK         1 GROUP             0       ****    0 ROOT    
