@<TRIPOS>MOLECULE
245_c1
68   72    1
SMALL
USER_CHARGES


@<TRIPOS>ATOM
      1 Fe1        -0.2548    1.0851    0.0867 Fe        1 UNK         0.0000 
      2 O2          1.2064    1.2155    1.7521 O.co2     1 UNK         0.0000 
      3 C3          0.8514    2.1482    2.4415 C.2       1 UNK         0.0000 
      4 C4          1.8526    2.9251    3.2847 C.3       1 UNK         0.0000 
      5 N5         -0.4450    2.4469    2.3031 N.am      1 UNK         0.0000 
      6 O6         -1.2078    1.5417    1.6748 O.co2     1 UNK         0.0000 
      7 C7         -0.9545    3.8464    2.3531 C.3       1 UNK         0.0000 
      8 C8         -0.0312    4.9916    1.7575 C.3       1 UNK         0.0000 
      9 C9         -0.4984    5.9258    0.6025 C.3       1 UNK         0.0000 
     10 C10        -1.1832    5.2841   -0.5983 C.2       1 UNK         0.0000 
     11 O11        -2.4181    5.2725   -0.6131 O.2       1 UNK         0.0000 
     12 C12        -0.3160    4.7998   -1.8117 C.3       1 UNK         0.0000 
     13 C13        -0.0799    3.2664   -2.0236 C.3       1 UNK         0.0000 
     14 O14         0.7195    2.7084   -1.0041 O.co2     1 UNK         0.0000 
     15 C15        -1.5076    2.6180   -1.9117 C.2       1 UNK         0.0000 
     16 O16        -1.6277    2.0782   -0.7629 O.co2     1 UNK         0.0000 
     17 O17        -2.2795    2.5776   -2.9004 O.co2     1 UNK         0.0000 
     18 C18         0.5788    2.9475   -3.4235 C.3       1 UNK         0.0000 
     19 C19         1.2728    1.5559   -3.6246 C.2       1 UNK         0.0000 
     20 O20         2.3698    1.2785   -3.1217 O.2       1 UNK         0.0000 
     21 C21         0.6205    0.5312   -4.5754 C.3       1 UNK         0.0000 
     22 C22         0.6951   -0.9641   -4.1282 C.3       1 UNK         0.0000 
     23 C23        -0.3356   -1.4078   -3.0509 C.3       1 UNK         0.0000 
     24 N24        -0.0523   -1.0665   -1.6551 N.am      1 UNK         0.0000 
     25 O25        -0.8301   -0.1740   -1.1199 O.co2     1 UNK         0.0000 
     26 C26         1.0839   -1.2544   -0.9481 C.2       1 UNK         0.0000 
     27 O27         1.1742   -0.4104   -0.0466 O.co2     1 UNK         0.0000 
     28 C28         2.0534   -2.4220   -1.1662 C.3       1 UNK         0.0000 
     29 C29         1.2827   -3.7573   -1.3133 C.3       1 UNK         0.0000 
     30 C30         2.1426   -5.0105   -1.1427 C.3       1 UNK         0.0000 
     31 C31         1.3069   -6.2840   -1.3841 C.3       1 UNK         0.0000 
     32 C32         2.0945   -7.5968   -1.2802 C.3       1 UNK         0.0000 
     33 C33         2.5988   -7.8935    0.1425 C.3       1 UNK         0.0000 
     34 C34         3.3219   -9.2420    0.2331 C.3       1 UNK         0.0000 
     35 H35         2.2331    2.2845    4.0785 H         1 UNK         0.0000 
     36 H36         2.6879    3.2090    2.6442 H         1 UNK         0.0000 
     37 H37         1.4058    3.8149    3.7240 H         1 UNK         0.0000 
     38 H38        -1.0851    4.0423    3.4208 H         1 UNK         0.0000 
     39 H39        -1.9675    3.9072    1.9515 H         1 UNK         0.0000 
     40 H40         0.2182    5.6605    2.5824 H         1 UNK         0.0000 
     41 H41         0.9236    4.5972    1.4255 H         1 UNK         0.0000 
     42 H42        -1.2569    6.6036    0.9845 H         1 UNK         0.0000 
     43 H43         0.3206    6.5521    0.2317 H         1 UNK         0.0000 
     44 H44        -0.8206    5.1808   -2.6954 H         1 UNK         0.0000 
     45 H45         0.6528    5.2914   -1.7863 H         1 UNK         0.0000 
     46 H46         1.3484    3.6817   -3.6504 H         1 UNK         0.0000 
     47 H47        -0.1736    3.0698   -4.2054 H         1 UNK         0.0000 
     48 H48        -0.4001    0.8385   -4.8170 H         1 UNK         0.0000 
     49 H49         1.1898    0.6280   -5.5030 H         1 UNK         0.0000 
     50 H50         1.6989   -1.2233   -3.8032 H         1 UNK         0.0000 
     51 H51         0.5217   -1.5694   -5.0186 H         1 UNK         0.0000 
     52 H52        -0.5588   -2.4701   -3.1254 H         1 UNK         0.0000 
     53 H53        -1.2817   -0.9452   -3.3526 H         1 UNK         0.0000 
     54 H54         2.6881   -2.2088   -2.0268 H         1 UNK         0.0000 
     55 H55         2.7077   -2.4727   -0.2928 H         1 UNK         0.0000 
     56 H56         0.4534   -3.8090   -0.5944 H         1 UNK         0.0000 
     57 H57         0.8160   -3.8194   -2.2973 H         1 UNK         0.0000 
     58 H58         2.5713   -5.0074   -0.1381 H         1 UNK         0.0000 
     59 H59         2.9848   -4.9743   -1.8379 H         1 UNK         0.0000 
     60 H60         0.4685   -6.3041   -0.6855 H         1 UNK         0.0000 
     61 H61         0.8592   -6.2247   -2.3777 H         1 UNK         0.0000 
     62 H62         1.4436   -8.4110   -1.6066 H         1 UNK         0.0000 
     63 H63         2.9285   -7.5834   -1.9842 H         1 UNK         0.0000 
     64 H64         3.2772   -7.1032    0.4721 H         1 UNK         0.0000 
     65 H65         1.7568   -7.8831    0.8393 H         1 UNK         0.0000 
     66 H66         4.1929   -9.2659   -0.4225 H         1 UNK         0.0000 
     67 H67         2.6630  -10.0630   -0.0506 H         1 UNK         0.0000 
     68 H68         3.6644   -9.4236    1.2515 H         1 UNK         0.0000 
@<TRIPOS>BOND
     1    1    2 nc   
     2    1    6 nc   
     3    1   14 nc   
     4    1   16 nc   
     5    1   25 nc   
     6    1   27 nc   
     7    2    3 2    
     8    3    4 1    
     9    3    5 am   BACKBONE|DICT|INTERRES
    10    4   37 1    
    11    4   35 1    
    12    4   36 1    
    13    5    7 1    
    14    5    6 1    
    15    7   38 1    
    16    7    8 1    
    17    7   39 1    
    18    8   40 1    
    19    8    9 1    
    20    8   41 1    
    21    9   42 1    
    22    9   10 1    
    23    9   43 1    
    24   10   11 2    
    25   10   12 1    
    26   12   13 1    
    27   12   44 1    
    28   12   45 1    
    29   13   15 1    
    30   13   14 1    
    31   13   18 1    
    32   15   16 1    
    33   15   17 2    
    34   18   19 1    
    35   18   46 1    
    36   18   47 1    
    37   19   20 2    
    38   19   21 1    
    39   21   22 1    
    40   21   48 1    
    41   21   49 1    
    42   22   50 1    
    43   22   23 1    
    44   22   51 1    
    45   23   52 1    
    46   23   24 1    
    47   23   53 1    
    48   24   25 1    
    49   24   26 am   BACKBONE|DICT|INTERRES
    50   26   28 1    
    51   26   27 2    
    52   28   55 1    
    53   28   29 1    
    54   28   54 1    
    55   29   30 1    
    56   29   56 1    
    57   29   57 1    
    58   30   58 1    
    59   30   31 1    
    60   30   59 1    
    61   31   32 1    
    62   31   60 1    
    63   31   61 1    
    64   32   33 1    
    65   32   62 1    
    66   32   63 1    
    67   33   34 1    
    68   33   64 1    
    69   33   65 1    
    70   34   68 1    
    71   34   66 1    
    72   34   67 1    
@<TRIPOS>SUBSTRUCTURE
     1 UNK         1 GROUP             0       ****    0 ROOT    
