@<TRIPOS>MOLECULE
264_c1
64   72    1
SMALL
USER_CHARGES


@<TRIPOS>ATOM
      1 Fe1        -0.4568    2.3279    0.0849 Fe        1 UNK         0.0000 
      2 C2         -1.8765    1.3342   -5.0211 C.ar      1 UNK         0.0000 
      3 C3         -1.7438    2.7137   -5.0992 C.ar      1 UNK         0.0000 
      4 C4         -1.6284    3.4669   -3.9386 C.ar      1 UNK         0.0000 
      5 C5         -1.6610    2.8635   -2.6816 C.ar      1 UNK         0.0000 
      6 O6         -1.5951    3.6531   -1.6768 O.co2     1 UNK         0.0000 
      7 C7         -1.7530    1.4494   -2.5866 C.ar      1 UNK         0.0000 
      8 O8         -1.7008    0.8889   -1.4345 O.co2     1 UNK         0.0000 
      9 C9         -1.8697    0.6684   -3.7819 C.ar      1 UNK         0.0000 
     10 C10        -1.9909   -0.8552   -3.7979 C.2       1 UNK         0.0000 
     11 O11        -1.8152   -1.5366   -4.8201 O.2       1 UNK         0.0000 
     12 N12        -2.3518   -1.4114   -2.6426 N.am      1 UNK         0.0000 
     13 C13        -2.3366   -2.8163   -2.2639 C.3       1 UNK         0.0000 
     14 C14        -1.2299   -3.0391   -1.2482 C.ar      1 UNK         0.0000 
     15 C15        -1.5621   -3.2457    0.0897 C.ar      1 UNK         0.0000 
     16 C16        -0.5802   -3.1438    1.0742 C.ar      1 UNK         0.0000 
     17 C17        -0.9963   -3.0414    2.5286 C.3       1 UNK         0.0000 
     18 N18        -0.9306   -1.6440    2.9325 N.am      1 UNK         0.0000 
     19 C19        -0.0916   -1.0673    3.7901 C.2       1 UNK         0.0000 
     20 O20         0.6322   -1.7415    4.5400 O.2       1 UNK         0.0000 
     21 C21        -0.1316    0.4604    3.8303 C.ar      1 UNK         0.0000 
     22 C22        -0.7179    1.2802    2.8146 C.ar      1 UNK         0.0000 
     23 O23        -1.2265    0.7578    1.7620 O.co2     1 UNK         0.0000 
     24 C24        -0.6978    2.6939    2.9541 C.ar      1 UNK         0.0000 
     25 O25        -1.2143    3.5154    2.1200 O.co2     1 UNK         0.0000 
     26 C26        -0.0616    3.2655    4.0525 C.ar      1 UNK         0.0000 
     27 C27         0.4895    2.4752    5.0504 C.ar      1 UNK         0.0000 
     28 C28         0.4425    1.0917    4.9464 C.ar      1 UNK         0.0000 
     29 C29         0.7589   -2.9634    0.7085 C.ar      1 UNK         0.0000 
     30 C30         1.1079   -2.7853   -0.6344 C.ar      1 UNK         0.0000 
     31 C31         0.1100   -2.8562   -1.6117 C.ar      1 UNK         0.0000 
     32 C32         2.5351   -2.4010   -1.0182 C.3       1 UNK         0.0000 
     33 N33         2.6239   -0.9710   -1.2653 N.am      1 UNK         0.0000 
     34 C34         3.6878   -0.2047   -1.5121 C.2       1 UNK         0.0000 
     35 O35         4.7911   -0.6894   -1.8121 O.2       1 UNK         0.0000 
     36 C36         3.4426    1.3052   -1.3974 C.ar      1 UNK         0.0000 
     37 C37         2.3063    1.8694   -0.7277 C.ar      1 UNK         0.0000 
     38 O38         1.4001    1.1208   -0.2071 O.co2     1 UNK         0.0000 
     39 C39         2.1720    3.2791   -0.6428 C.ar      1 UNK         0.0000 
     40 O40         1.2052    3.8704   -0.0537 O.co2     1 UNK         0.0000 
     41 C41         3.1343    4.1010   -1.2335 C.ar      1 UNK         0.0000 
     42 C42         4.2351    3.5636   -1.8886 C.ar      1 UNK         0.0000 
     43 C43         4.3915    2.1833   -1.9647 C.ar      1 UNK         0.0000 
     44 H44        -1.9921    0.7651   -5.9304 H         1 UNK         0.0000 
     45 H45        -1.7504    3.2102   -6.0551 H         1 UNK         0.0000 
     46 H46        -1.5151    4.5414   -3.9944 H         1 UNK         0.0000 
     47 H47        -2.2596   -0.6816   -1.9154 H         1 UNK         0.0000 
     48 H48        -3.3093   -3.0767   -1.8415 H         1 UNK         0.0000 
     49 H49        -2.1767   -3.4691   -3.1243 H         1 UNK         0.0000 
     50 H50        -2.6003   -3.3141    0.3794 H         1 UNK         0.0000 
     51 H51        -2.0148   -3.4087    2.6703 H         1 UNK         0.0000 
     52 H52        -0.3491   -3.6756    3.1387 H         1 UNK         0.0000 
     53 H53        -1.2935   -0.9025    2.3096 H         1 UNK         0.0000 
     54 H54        -0.0082    4.3441    4.1179 H         1 UNK         0.0000 
     55 H55         0.9296    2.9433    5.9139 H         1 UNK         0.0000 
     56 H56         0.8523    0.4941    5.7453 H         1 UNK         0.0000 
     57 H57         1.4986   -2.8121    1.4816 H         1 UNK         0.0000 
     58 H58         0.3522   -2.6188   -2.6374 H         1 UNK         0.0000 
     59 H59         3.2219   -2.6794   -0.2158 H         1 UNK         0.0000 
     60 H60         2.8367   -2.9558   -1.9083 H         1 UNK         0.0000 
     61 H61         1.9113   -0.3469   -0.8493 H         1 UNK         0.0000 
     62 H62         3.0100    5.1753   -1.1727 H         1 UNK         0.0000 
     63 H63         4.9672    4.2272   -2.3231 H         1 UNK         0.0000 
     64 H64         5.2622    1.7808   -2.4618 H         1 UNK         0.0000 
@<TRIPOS>BOND
     1    1    6 nc   
     2    1    8 nc   
     3    1   23 nc   
     4    1   25 nc   
     5    1   38 nc   
     6    1   40 nc   
     7    2    9 ar   
     8    2    3 ar   
     9    2   44 1    
    10    3    4 ar   
    11    3   45 1    
    12    4    5 ar   
    13    4   46 1    
    14    5    7 ar   
    15    5    6 1    
    16    7    8 1    
    17    7    9 ar   
    18    9   10 1    
    19   10   12 am   BACKBONE|DICT|INTERRES
    20   10   11 2    
    21   12   13 1    
    22   12   47 1    
    23   13   48 1    
    24   13   14 1    
    25   13   49 1    
    26   14   15 ar   
    27   14   31 ar   
    28   15   50 1    
    29   15   16 ar   
    30   16   17 1    
    31   16   29 ar   
    32   17   51 1    
    33   17   18 1    
    34   17   52 1    
    35   18   19 am   BACKBONE|DICT|INTERRES
    36   18   53 1    
    37   19   21 1    
    38   19   20 2    
    39   21   28 ar   
    40   21   22 ar   
    41   22   24 ar   
    42   22   23 1    
    43   24   26 ar   
    44   24   25 1    
    45   26   54 1    
    46   26   27 ar   
    47   27   55 1    
    48   27   28 ar   
    49   28   56 1    
    50   29   57 1    
    51   29   30 ar   
    52   30   31 ar   
    53   30   32 1    
    54   31   58 1    
    55   32   59 1    
    56   32   33 1    
    57   32   60 1    
    58   33   61 1    
    59   33   34 am   BACKBONE|DICT|INTERRES
    60   34   36 1    
    61   34   35 2    
    62   36   37 ar   
    63   36   43 ar   
    64   37   39 ar   
    65   37   38 1    
    66   39   40 1    
    67   39   41 ar   
    68   41   62 1    
    69   41   42 ar   
    70   42   43 ar   
    71   42   63 1    
    72   43   64 1    
@<TRIPOS>SUBSTRUCTURE
     1 UNK         1 GROUP             0       ****    0 ROOT    
