@<TRIPOS>MOLECULE
246_c1
133   138    1
SMALL
USER_CHARGES


@<TRIPOS>ATOM
      1 O1         14.0476    8.6093    4.2786 O.co2     1 UNK         0.0000 
      2 N2         13.1198    8.0737    5.1087 N.am      1 UNK         0.0000 
      3 C3         13.0051    6.6083    5.2042 C.3       1 UNK         0.0000 
      4 C4         12.5887    6.2138    6.6299 C.3       1 UNK         0.0000 
      5 C5         11.2248    6.8505    6.9459 C.3       1 UNK         0.0000 
      6 C6         11.2817    8.3913    6.8366 C.3       1 UNK         0.0000 
      7 H7         11.8200    8.7208    7.7197 H         1 UNK         0.0000 
      8 C8         12.2591    8.9431    5.7415 C.2       1 UNK         0.0000 
      9 O9         12.4227   10.1507    5.5765 O.co2     1 UNK         0.0000 
     10 N10        10.0177    9.1738    6.9464 N.am      1 UNK         0.0000 
     11 C11         9.2114    9.5602    5.9298 C.2       1 UNK         0.0000 
     12 O12         9.2812    9.0526    4.8077 O.2       1 UNK         0.0000 
     13 C13         8.2388   10.7558    6.2348 C.3       1 UNK         0.0000 
     14 H14         7.4495   10.3081    6.8428 H         1 UNK         0.0000 
     15 C15         7.5884   11.4084    4.9804 C.3       1 UNK         0.0000 
     16 O16         6.6664   10.5467    4.3503 O.3       1 UNK         0.0000 
     17 N17         8.8127   11.8467    7.0640 N.am      1 UNK         0.0000 
     18 C18         9.9457   12.5020    6.7645 C.2       1 UNK         0.0000 
     19 O19        10.7185   12.1393    5.8912 O.2       1 UNK         0.0000 
     20 C20        10.2948   13.7749    7.5538 C.3       1 UNK         0.0000 
     21 H21         9.7783   13.7381    8.5093 H         1 UNK         0.0000 
     22 C22        11.8203   13.8524    7.8367 C.3       1 UNK         0.0000 
     23 C23        12.4691   12.7070    8.6636 C.3       1 UNK         0.0000 
     24 C24        14.0131   12.6420    8.5049 C.3       1 UNK         0.0000 
     25 N25        14.4468   11.6378    7.5113 N.am      1 UNK         0.0000 
     26 O26        14.3442   12.0711    6.2429 O.co2     1 UNK         0.0000 
     27 C27        14.7768   10.3539    7.8428 C.2       1 UNK         0.0000 
     28 O28        14.8732    9.5447    6.9134 O.co2     1 UNK         0.0000 
     29 C29        15.0588    9.8882    9.2910 C.3       1 UNK         0.0000 
     30 C30        14.0228    8.8995    9.8760 C.3       1 UNK         0.0000 
     31 H31        13.8250    8.0762    9.1885 H         1 UNK         0.0000 
     32 O32        14.5974    8.3278   11.0244 O.3       1 UNK         0.0000 
     33 C33        12.6988    9.5246   10.3642 C.3       1 UNK         0.0000 
     34 N34         9.9031   15.0116    6.8675 N.am      1 UNK         0.0000 
     35 C35         9.6426   15.2289    5.5665 C.2       1 UNK         0.0000 
     36 O36         8.9446   14.5124    4.8446 O.2       1 UNK         0.0000 
     37 C37        10.3059   16.5116    5.0041 C.3       1 UNK         0.0000 
     38 H38        10.9108   16.9242    5.8204 H         1 UNK         0.0000 
     39 C39         9.2435   17.6038    4.7069 C.3       1 UNK         0.0000 
     40 C40         8.4688   18.0600    5.9567 C.2       1 UNK         0.0000 
     41 O41         8.9433   17.7389    7.0778 O.co2     1 UNK         0.0000 
     42 O42         7.4647   18.7753    5.7656 O.co2     1 UNK         0.0000 
     43 N43        11.3212   16.3304    3.9365 N.am      1 UNK         0.0000 
     44 C44        11.9414   15.2276    3.4599 C.2       1 UNK         0.0000 
     45 O45        11.5581   14.0592    3.5693 O.2       1 UNK         0.0000 
     46 C46        13.2962   15.4709    2.7335 C.3       1 UNK         0.0000 
     47 H47        13.1463   16.1975    1.9277 H         1 UNK         0.0000 
     48 C48        14.3019   15.9611    3.8335 C.3       1 UNK         0.0000 
     49 H49        13.8609   16.8001    4.3713 H         1 UNK         0.0000 
     50 O50        15.4582   16.4884    3.2345 O.3       1 UNK         0.0000 
     51 C51        14.7250   14.8924    4.8726 C.3       1 UNK         0.0000 
     52 N52        13.6901   14.1789    2.1513 N.am      1 UNK         0.0000 
     53 C53        14.8389   13.8210    1.5524 C.2       1 UNK         0.0000 
     54 O54        15.7335   14.6358    1.3318 O.2       1 UNK         0.0000 
     55 C55        15.0228   12.3255    1.1307 C.3       1 UNK         0.0000 
     56 H56        14.2493   12.0932    0.3966 H         1 UNK         0.0000 
     57 C57        14.8989   11.2548    2.3166 C.3       1 UNK         0.0000 
     58 H58        14.7038   10.3090    1.7979 H         1 UNK         0.0000 
     59 O59        13.7631   11.3717    3.2382 O.co2     1 UNK         0.0000 
     60 C60        16.2243   10.9153    3.1058 C.2       1 UNK         0.0000 
     61 O61        16.1132   10.6514    4.3459 O.co2     1 UNK         0.0000 
     62 O62        17.2972   10.8453    2.4798 O.co2     1 UNK         0.0000 
     63 N63        16.3018   12.1346    0.4369 N.am      1 UNK         0.0000 
     64 C64        16.7101   12.4244   -0.8026 C.2       1 UNK         0.0000 
     65 O65        15.9686   12.8848   -1.6663 O.2       1 UNK         0.0000 
     66 C66        18.1944   12.0882   -1.0752 C.3       1 UNK         0.0000 
     67 C67        18.7823   12.5880   -2.4288 C.3       1 UNK         0.0000 
     68 C68        20.2845   12.2567   -2.6566 C.3       1 UNK         0.0000 
     69 C69        20.5986   10.7727   -2.9869 C.3       1 UNK         0.0000 
     70 C70        21.9346   10.5597   -3.7525 C.3       1 UNK         0.0000 
     71 C71        22.1181    9.0926   -4.2129 C.3       1 UNK         0.0000 
     72 C72        22.9657    8.8908   -5.4963 C.3       1 UNK         0.0000 
     73 C73        24.4704    8.5765   -5.3053 C.3       1 UNK         0.0000 
     74 C74        25.3677    9.7957   -4.9866 C.3       1 UNK         0.0000 
     75 C75        26.8593    9.5638   -5.3328 C.3       1 UNK         0.0000 
     76 C76        27.5207    8.3871   -4.5801 C.3       1 UNK         0.0000 
     77 H77        12.2730    6.2790    4.4687 H         1 UNK         0.0000 
     78 H78        13.9467    6.1411    4.9287 H         1 UNK         0.0000 
     79 H79        13.3469    6.5500    7.3339 H         1 UNK         0.0000 
     80 H80        12.5534    5.1355    6.7320 H         1 UNK         0.0000 
     81 H81        10.9566    6.5701    7.9726 H         1 UNK         0.0000 
     82 H82        10.4359    6.4530    6.3062 H         1 UNK         0.0000 
     83 H83         9.8996    9.7348    7.7770 H         1 UNK         0.0000 
     84 H84         8.3644   11.7222    4.2869 H         1 UNK         0.0000 
     85 H85         7.0458   12.3129    5.2531 H         1 UNK         0.0000 
     86 H86         6.3844   10.9555    3.5255 H         1 UNK         0.0000 
     87 H87         8.1827   12.2738    7.7259 H         1 UNK         0.0000 
     88 H88        12.0307   14.8016    8.3370 H         1 UNK         0.0000 
     89 H89        12.3280   13.9252    6.8770 H         1 UNK         0.0000 
     90 H90        12.2271   12.8356    9.7177 H         1 UNK         0.0000 
     91 H91        12.0319   11.7458    8.3752 H         1 UNK         0.0000 
     92 H92        14.4000   13.6160    8.2093 H         1 UNK         0.0000 
     93 H93        14.4389   12.5038    9.4992 H         1 UNK         0.0000 
     94 H94        15.2497   10.6990    9.9863 H         1 UNK         0.0000 
     95 H95        16.0149    9.3723    9.2306 H         1 UNK         0.0000 
     96 H96        14.4700    8.9266   11.7700 H         1 UNK         0.0000 
     97 H97        12.0150    9.7808    9.5552 H         1 UNK         0.0000 
     98 H98        12.8550   10.4433   10.9278 H         1 UNK         0.0000 
     99 H99        12.1440    8.8407   11.0155 H         1 UNK         0.0000 
    100 H100       10.0666   15.8822    7.3666 H         1 UNK         0.0000 
    101 H101        8.5118   17.1913    4.0125 H         1 UNK         0.0000 
    102 H102        9.6801   18.4978    4.2601 H         1 UNK         0.0000 
    103 H103       11.7489   17.2032    3.6911 H         1 UNK         0.0000 
    104 H104       15.7230   15.8625    2.5234 H         1 UNK         0.0000 
    105 H105       15.4053   15.3036    5.6205 H         1 UNK         0.0000 
    106 H106       15.2432   14.0489    4.4118 H         1 UNK         0.0000 
    107 H107       13.8661   14.4893    5.4101 H         1 UNK         0.0000 
    108 H108       12.9647   13.5130    2.3735 H         1 UNK         0.0000 
    109 H109       16.9958   11.7418    1.0846 H         1 UNK         0.0000 
    110 H110       18.2926   11.0058   -1.0207 H         1 UNK         0.0000 
    111 H111       18.7848   12.4944   -0.2530 H         1 UNK         0.0000 
    112 H112       18.1937   12.1887   -3.2538 H         1 UNK         0.0000 
    113 H113       18.6630   13.6701   -2.4817 H         1 UNK         0.0000 
    114 H114       20.8724   12.5785   -1.7920 H         1 UNK         0.0000 
    115 H115       20.6323   12.8793   -3.4857 H         1 UNK         0.0000 
    116 H116       19.7791   10.3738   -3.5914 H         1 UNK         0.0000 
    117 H117       20.5998   10.1883   -2.0646 H         1 UNK         0.0000 
    118 H118       22.7791   10.8668   -3.1304 H         1 UNK         0.0000 
    119 H119       21.9483   11.2217   -4.6216 H         1 UNK         0.0000 
    120 H120       22.5023    8.4818   -3.3939 H         1 UNK         0.0000 
    121 H121       21.1306    8.6794   -4.4281 H         1 UNK         0.0000 
    122 H122       22.8438    9.7331   -6.1812 H         1 UNK         0.0000 
    123 H123       22.5359    8.0435   -6.0386 H         1 UNK         0.0000 
    124 H124       24.8276    8.1229   -6.2342 H         1 UNK         0.0000 
    125 H125       24.6037    7.8069   -4.5423 H         1 UNK         0.0000 
    126 H126       25.0162   10.6629   -5.5542 H         1 UNK         0.0000 
    127 H127       25.2669   10.0717   -3.9354 H         1 UNK         0.0000 
    128 H128       26.9581    9.4031   -6.4080 H         1 UNK         0.0000 
    129 H129       27.4189   10.4780   -5.1277 H         1 UNK         0.0000 
    130 H130       28.5716    8.2910   -4.8526 H         1 UNK         0.0000 
    131 H131       27.0424    7.4375   -4.8156 H         1 UNK         0.0000 
    132 H132       27.4743    8.5236   -3.5001 H         1 UNK         0.0000 
    133 Fe133      14.2719   10.4202    5.1063 Fe        1 UNK         0.0000 
@<TRIPOS>BOND
     1    1    2 1    
     2    1  133 nc   
     3    2    3 1    
     4    2    8 am   BACKBONE|DICT|INTERRES
     5    3    4 1    
     6    3   77 1    
     7    3   78 1    
     8    4    5 1    
     9    4   79 1    
    10    4   80 1    
    11    5    6 1    
    12    5   81 1    
    13    5   82 1    
    14    6    7 1    
    15    6    8 1    
    16    6   10 1    
    17    8    9 2    
    18    9  133 nc   
    19   10   11 am   BACKBONE|DICT|INTERRES
    20   10   83 1    
    21   11   12 2    
    22   11   13 1    
    23   13   15 1    
    24   13   17 1    
    25   13   14 1    
    26   15   16 1    
    27   15   84 1    
    28   15   85 1    
    29   16   86 1    
    30   17   18 am   BACKBONE|DICT|INTERRES
    31   17   87 1    
    32   18   19 2    
    33   18   20 1    
    34   20   21 1    
    35   20   22 1    
    36   20   34 1    
    37   22   23 1    
    38   22   88 1    
    39   22   89 1    
    40   23   24 1    
    41   23   90 1    
    42   23   91 1    
    43   24   25 1    
    44   24   92 1    
    45   24   93 1    
    46   25   26 1    
    47   25   27 am   BACKBONE|DICT|INTERRES
    48   26  133 nc   
    49   27   28 2    
    50   27   29 1    
    51   28  133 nc   
    52   29   30 1    
    53   29   94 1    
    54   29   95 1    
    55   30   31 1    
    56   30   32 1    
    57   30   33 1    
    58   32   96 1    
    59   33   97 1    
    60   33   98 1    
    61   33   99 1    
    62   34   35 am   BACKBONE|DICT|INTERRES
    63   34  100 1    
    64   35   36 2    
    65   35   37 1    
    66   37   39 1    
    67   37   43 1    
    68   37   38 1    
    69   39   40 1    
    70   39  101 1    
    71   39  102 1    
    72   40   41 1    
    73   40   42 2    
    74   43   44 am   BACKBONE|DICT|INTERRES
    75   43  103 1    
    76   44   45 2    
    77   44   46 1    
    78   46   47 1    
    79   46   52 1    
    80   46   48 1    
    81   48   50 1    
    82   48   51 1    
    83   48   49 1    
    84   50  104 1    
    85   51  105 1    
    86   51  106 1    
    87   51  107 1    
    88   52   53 am   BACKBONE|DICT|INTERRES
    89   52  108 1    
    90   53   54 2    
    91   53   55 1    
    92   55   63 1    
    93   55   56 1    
    94   55   57 1    
    95   57   59 1    
    96   57   60 1    
    97   57   58 1    
    98   59  133 nc   
    99   60   61 1    
   100   60   62 2    
   101   61  133 nc   
   102   63   64 am   BACKBONE|DICT|INTERRES
   103   63  109 1    
   104   64   65 2    
   105   64   66 1    
   106   66   67 1    
   107   66  110 1    
   108   66  111 1    
   109   67   68 1    
   110   67  112 1    
   111   67  113 1    
   112   68   69 1    
   113   68  114 1    
   114   68  115 1    
   115   69   70 1    
   116   69  116 1    
   117   69  117 1    
   118   70   71 1    
   119   70  118 1    
   120   70  119 1    
   121   71   72 1    
   122   71  120 1    
   123   71  121 1    
   124   72   73 1    
   125   72  122 1    
   126   72  123 1    
   127   73   74 1    
   128   73  124 1    
   129   73  125 1    
   130   74   75 1    
   131   74  126 1    
   132   74  127 1    
   133   75   76 1    
   134   75  128 1    
   135   75  129 1    
   136   76  130 1    
   137   76  131 1    
   138   76  132 1    
@<TRIPOS>SUBSTRUCTURE
     1 UNK         1 GROUP             0       ****    0 ROOT    
