@<TRIPOS>MOLECULE
262_c1
56   64    1
SMALL
USER_CHARGES


@<TRIPOS>ATOM
      1 C1         -9.1390   -3.2378   -5.8163 C.ar      1 UNK         0.0000 
      2 C2         -9.9261   -3.4996   -6.9385 C.ar      1 UNK         0.0000 
      3 C3         -9.5848   -2.9655   -8.1697 C.ar      1 UNK         0.0000 
      4 C4         -8.4387   -2.1889   -8.2999 C.ar      1 UNK         0.0000 
      5 C5         -7.6308   -1.9238   -7.1911 C.ar      1 UNK         0.0000 
      6 O6         -6.5951   -1.2278   -7.4459 O.co2     1 UNK         0.0000 
      7 C7         -7.9897   -2.4333   -5.9036 C.ar      1 UNK         0.0000 
      8 C8         -7.2236   -2.1329   -4.6591 C.2       1 UNK         0.0000 
      9 S9         -7.7201   -2.7116   -3.0216 S.3       1 UNK         0.0000 
     10 C10        -6.5621   -1.5347   -2.2722 C.3       1 UNK         0.0000 
     11 N11        -6.1865   -1.3966   -4.6414 N.pl3     1 UNK         0.0000 
     12 C12        -5.5295   -1.2794   -3.3729 C.3       1 UNK         0.0000 
     13 H13        -4.8136   -2.1078   -3.3310 H         1 UNK         0.0000 
     14 C14        -4.7371    0.0707   -3.3066 C.3       1 UNK         0.0000 
     15 H15        -5.3919    0.8533   -2.9168 H         1 UNK         0.0000 
     16 S16        -3.3403   -0.0561   -2.1919 S.3       1 UNK         0.0000 
     17 C17        -2.3375   -0.7460   -3.5167 C.3       1 UNK         0.0000 
     18 N18        -4.1772    0.5530   -4.5919 N.3       1 UNK         0.0000 
     19 C19        -2.7833    0.0460   -4.7711 C.3       1 UNK         0.0000 
     20 H20        -2.1314    0.9237   -4.7855 H         1 UNK         0.0000 
     21 C21        -2.6330   -0.7244   -6.1377 C.3       1 UNK         0.0000 
     22 H22        -1.7320   -1.3451   -6.0463 H         1 UNK         0.0000 
     23 O23        -3.7427   -1.5687   -6.3305 O.co2     1 UNK         0.0000 
     24 C24        -2.3301    0.2329   -7.4077 C.3       1 UNK         0.0000 
     25 C25        -0.9488    0.9464   -7.3191 C.3       1 UNK         0.0000 
     26 C26        -2.2391   -0.6454   -8.6996 C.3       1 UNK         0.0000 
     27 C27        -3.4500    1.3007   -7.6869 C.2       1 UNK         0.0000 
     28 S28        -3.1785    2.8693   -8.5192 S.3       1 UNK         0.0000 
     29 C29        -4.7863    3.4119   -7.9046 C.3       1 UNK         0.0000 
     30 N30        -4.6887    1.0192   -7.5260 N.pl3     1 UNK         0.0000 
     31 C31        -5.6160    2.1162   -7.8140 C.3       1 UNK         0.0000 
     32 C32        -6.3519    1.8225   -9.1482 C.3       1 UNK         0.0000 
     33 C33        -6.6615    2.2346   -6.6452 C.2       1 UNK         0.0000 
     34 O34        -6.7072    1.2296   -5.8479 O.co2     1 UNK         0.0000 
     35 O35        -7.2452    3.3121   -6.4456 O.co2     1 UNK         0.0000 
     36 H36        -9.4626   -3.6782   -4.8822 H         1 UNK         0.0000 
     37 H37       -10.8115   -4.1121   -6.8563 H         1 UNK         0.0000 
     38 H38       -10.2116   -3.1522   -9.0346 H         1 UNK         0.0000 
     39 H39        -8.1666   -1.7955   -9.2725 H         1 UNK         0.0000 
     40 H40        -6.1130   -1.9614   -1.3695 H         1 UNK         0.0000 
     41 H41        -7.1334   -0.6400   -2.0069 H         1 UNK         0.0000 
     42 H42        -2.5609   -1.8156   -3.5676 H         1 UNK         0.0000 
     43 H43        -1.2707   -0.6263   -3.3016 H         1 UNK         0.0000 
     44 H44        -3.9928    1.5385   -4.3544 H         1 UNK         0.0000 
     45 H45        -0.1343    0.2535   -7.0920 H         1 UNK         0.0000 
     46 H46        -0.9292    1.7446   -6.5745 H         1 UNK         0.0000 
     47 H47        -0.6706    1.4112   -8.2678 H         1 UNK         0.0000 
     48 H48        -1.4564   -1.4077   -8.6252 H         1 UNK         0.0000 
     49 H49        -2.0063   -0.0558   -9.5912 H         1 UNK         0.0000 
     50 H50        -3.1754   -1.1724   -8.9222 H         1 UNK         0.0000 
     51 H51        -5.2374    4.1483   -8.5728 H         1 UNK         0.0000 
     52 H52        -4.6199    3.8675   -6.9196 H         1 UNK         0.0000 
     53 H53        -5.6699    1.7002   -9.9932 H         1 UNK         0.0000 
     54 H54        -7.0179    2.6523   -9.3883 H         1 UNK         0.0000 
     55 H55        -6.9645    0.9193   -9.0887 H         1 UNK         0.0000 
     56 Fe56       -5.3878   -0.3245   -6.1606 Fe        1 UNK         0.0000 
@<TRIPOS>BOND
     1    1    2 ar   
     2    1    7 ar   
     3    1   36 1    
     4    2    3 ar   
     5    2   37 1    
     6    3    4 ar   
     7    3   38 1    
     8    4    5 ar   
     9    4   39 1    
    10    5    6 1    
    11    5    7 ar   
    12    6   56 nc   
    13    7    8 1    
    14    8    9 1    
    15    8   11 2    
    16    9   10 1    
    17   10   12 1    
    18   10   40 1    
    19   10   41 1    
    20   11   12 1    
    21   11   56 nc   
    22   12   14 1    
    23   12   13 1    
    24   14   16 1    
    25   14   18 1    
    26   14   15 1    
    27   16   17 1    
    28   17   19 1    
    29   17   42 1    
    30   17   43 1    
    31   18   19 1    
    32   18   44 1    
    33   18   56 nc   
    34   19   20 1    
    35   19   21 1    
    36   21   22 1    
    37   21   23 1    
    38   21   24 1    
    39   23   56 nc   
    40   24   25 1    
    41   24   26 1    
    42   24   27 1    
    43   25   45 1    
    44   25   46 1    
    45   25   47 1    
    46   26   48 1    
    47   26   49 1    
    48   26   50 1    
    49   27   28 1    
    50   27   30 2    
    51   28   29 1    
    52   29   31 1    
    53   29   51 1    
    54   29   52 1    
    55   30   31 1    
    56   30   56 nc   
    57   31   33 1    
    58   31   32 1    
    59   32   53 1    
    60   32   54 1    
    61   32   55 1    
    62   33   34 1    
    63   33   35 2    
    64   34   56 nc   
@<TRIPOS>SUBSTRUCTURE
     1 UNK         1 GROUP             0       ****    0 ROOT    
