@<TRIPOS>MOLECULE
272_c1
113   119    1
SMALL
USER_CHARGES


@<TRIPOS>ATOM
      1 C1        -17.1638   -4.1434   18.7362 C.ar      1 UNK         0.0000 
      2 C2        -17.1230   -5.4162   19.2952 C.ar      1 UNK         0.0000 
      3 C3        -17.6469   -6.5045   18.6103 C.ar      1 UNK         0.0000 
      4 C4        -18.2272   -6.3429   17.3485 C.ar      1 UNK         0.0000 
      5 C5        -18.2930   -5.0531   16.7463 C.ar      1 UNK         0.0000 
      6 C6        -17.7485   -3.9456   17.4570 C.ar      1 UNK         0.0000 
      7 C7        -18.8919   -4.8335   15.4646 C.ar      1 UNK         0.0000 
      8 C8        -18.9587   -3.5427   14.9087 C.ar      1 UNK         0.0000 
      9 C9        -18.3972   -2.4820   15.6270 C.ar      1 UNK         0.0000 
     10 C10       -17.8055   -2.6621   16.8705 C.ar      1 UNK         0.0000 
     11 N11       -19.6170   -3.3886   13.6606 N.am      1 UNK         0.0000 
     12 C12       -19.8542   -2.2518   12.9482 C.2       1 UNK         0.0000 
     13 O13       -19.4429   -1.1440   13.2630 O.2       1 UNK         0.0000 
     14 C14       -20.7026   -2.2984   11.6606 C.3       1 UNK         0.0000 
     15 C15       -21.2188   -3.6805   11.1737 C.3       1 UNK         0.0000 
     16 C16       -22.1977   -3.6871    9.9758 C.2       1 UNK         0.0000 
     17 O17       -22.5495   -4.7814    9.5494 O.2       1 UNK         0.0000 
     18 N18       -22.6453   -2.5322    9.4458 N.am      1 UNK         0.0000 
     19 C19       -23.6142   -2.4490    8.3373 C.3       1 UNK         0.0000 
     20 C20       -23.0315   -2.9171    6.9775 C.3       1 UNK         0.0000 
     21 C21       -24.0779   -3.2062    5.8884 C.3       1 UNK         0.0000 
     22 C22       -24.9698   -2.0215    5.5019 C.3       1 UNK         0.0000 
     23 C23       -25.8093   -2.4067    4.2680 C.3       1 UNK         0.0000 
     24 N24       -26.9103   -1.4891    3.9779 N.am      1 UNK         0.0000 
     25 O25       -28.1067   -2.0500    4.1420 O.co2     1 UNK         0.0000 
     26 C26       -26.7197   -0.2354    3.4748 C.2       1 UNK         0.0000 
     27 O27       -27.7383    0.3928    3.1510 O.co2     1 UNK         0.0000 
     28 C28       -25.3345    0.3859    3.2617 C.3       1 UNK         0.0000 
     29 C29       -25.3028    1.6718    2.3859 C.3       1 UNK         0.0000 
     30 C30       -25.2008    1.5317    0.8601 C.2       1 UNK         0.0000 
     31 O31       -24.8025    2.5068    0.2391 O.2       1 UNK         0.0000 
     32 N32       -25.4882    0.3665    0.2562 N.am      1 UNK         0.0000 
     33 C33       -25.1550    0.0522   -1.1454 C.3       1 UNK         0.0000 
     34 C34       -25.7881    0.9575   -2.2457 C.3       1 UNK         0.0000 
     35 C35       -27.2523    0.6991   -2.6794 C.3       1 UNK         0.0000 
     36 C36       -28.3063    0.8213   -1.5716 C.3       1 UNK         0.0000 
     37 C37       -28.7479   -0.5318   -0.9733 C.3       1 UNK         0.0000 
     38 N38       -29.2627   -0.4568    0.4155 N.am      1 UNK         0.0000 
     39 O39       -28.6521   -1.3431    1.2200 O.co2     1 UNK         0.0000 
     40 C40       -30.1792    0.4705    0.8642 C.2       1 UNK         0.0000 
     41 O41       -30.3185    0.5563    2.0949 O.co2     1 UNK         0.0000 
     42 C42       -31.0584    1.3780   -0.0355 C.3       1 UNK         0.0000 
     43 C43       -31.9707    0.6260   -1.0540 C.3       1 UNK         0.0000 
     44 C44       -33.4327    0.3085   -0.6773 C.2       1 UNK         0.0000 
     45 O45       -33.9662   -0.6519   -1.2130 O.2       1 UNK         0.0000 
     46 N46       -34.1017    1.0989    0.1763 N.am      1 UNK         0.0000 
     47 C47       -35.5336    0.9449    0.5210 C.3       1 UNK         0.0000 
     48 C48       -35.8500    0.7662    2.0309 C.3       1 UNK         0.0000 
     49 C49       -35.2174   -0.4600    2.7324 C.3       1 UNK         0.0000 
     50 C50       -33.7258   -0.2829    3.0427 C.3       1 UNK         0.0000 
     51 C51       -33.1256   -1.4970    3.7843 C.3       1 UNK         0.0000 
     52 N52       -31.6834   -1.3254    4.0136 N.am      1 UNK         0.0000 
     53 O53       -30.9417   -1.9768    3.1097 O.co2     1 UNK         0.0000 
     54 C54       -31.1878   -0.3989    4.8836 C.2       1 UNK         0.0000 
     55 O55       -30.0039   -0.0638    4.7465 O.co2     1 UNK         0.0000 
     56 C56       -32.0154    0.3190    5.9372 C.3       1 UNK         0.0000 
     57 H57       -16.7568   -3.3010   19.2714 H         1 UNK         0.0000 
     58 H58       -16.6787   -5.5585   20.2738 H         1 UNK         0.0000 
     59 H59       -17.6036   -7.4823   19.0656 H         1 UNK         0.0000 
     60 H60       -18.6315   -7.1954   16.8314 H         1 UNK         0.0000 
     61 H61       -19.3040   -5.6797   14.9418 H         1 UNK         0.0000 
     62 H62       -18.4067   -1.4721   15.2518 H         1 UNK         0.0000 
     63 H63       -17.3956   -1.8135   17.3970 H         1 UNK         0.0000 
     64 H64       -19.9617   -4.2374   13.2574 H         1 UNK         0.0000 
     65 H65       -21.5431   -1.6338   11.8742 H         1 UNK         0.0000 
     66 H66       -20.0556   -1.8494   10.9026 H         1 UNK         0.0000 
     67 H67       -21.7756   -4.1884   11.9642 H         1 UNK         0.0000 
     68 H68       -20.3861   -4.2973   10.8268 H         1 UNK         0.0000 
     69 H69       -22.2912   -1.6757    9.8400 H         1 UNK         0.0000 
     70 H70       -24.0342   -1.4432    8.2485 H         1 UNK         0.0000 
     71 H71       -24.4852   -3.0680    8.5818 H         1 UNK         0.0000 
     72 H72       -22.4788   -3.8497    7.1198 H         1 UNK         0.0000 
     73 H73       -22.3023   -2.1915    6.6077 H         1 UNK         0.0000 
     74 H74       -24.7080   -4.0488    6.1953 H         1 UNK         0.0000 
     75 H75       -23.5534   -3.5524    4.9948 H         1 UNK         0.0000 
     76 H76       -24.3496   -1.1529    5.2869 H         1 UNK         0.0000 
     77 H77       -25.6352   -1.7460    6.3223 H         1 UNK         0.0000 
     78 H78       -25.1947   -2.5833    3.3754 H         1 UNK         0.0000 
     79 H79       -26.2090   -3.4079    4.4702 H         1 UNK         0.0000 
     80 H80       -24.5561   -0.3386    3.0038 H         1 UNK         0.0000 
     81 H81       -25.0827    0.7152    4.2658 H         1 UNK         0.0000 
     82 H82       -24.3721    2.1679    2.6351 H         1 UNK         0.0000 
     83 H83       -26.0629    2.3959    2.6733 H         1 UNK         0.0000 
     84 H84       -25.9216   -0.3721    0.7894 H         1 UNK         0.0000 
     85 H85       -25.4179   -0.9944   -1.3215 H         1 UNK         0.0000 
     86 H86       -24.0662    0.0825   -1.2498 H         1 UNK         0.0000 
     87 H87       -25.1680    0.8458   -3.1364 H         1 UNK         0.0000 
     88 H88       -25.6915    2.0113   -1.9804 H         1 UNK         0.0000 
     89 H89       -27.3347   -0.2591   -3.2002 H         1 UNK         0.0000 
     90 H90       -27.5003    1.4547   -3.4233 H         1 UNK         0.0000 
     91 H91       -29.1769    1.2831   -2.0245 H         1 UNK         0.0000 
     92 H92       -27.9575    1.4903   -0.7812 H         1 UNK         0.0000 
     93 H93       -27.8417   -1.1464   -0.9906 H         1 UNK         0.0000 
     94 H94       -29.4244   -1.0934   -1.6309 H         1 UNK         0.0000 
     95 H95       -30.4041    2.0953   -0.5243 H         1 UNK         0.0000 
     96 H96       -31.6525    2.0077    0.6282 H         1 UNK         0.0000 
     97 H97       -31.5403   -0.3465   -1.2888 H         1 UNK         0.0000 
     98 H98       -32.0132    1.1874   -1.9827 H         1 UNK         0.0000 
     99 H99       -33.6003    1.8589    0.5987 H         1 UNK         0.0000 
    100 H100      -36.0908    1.7950    0.1200 H         1 UNK         0.0000 
    101 H101      -35.9461    0.0630    0.0181 H         1 UNK         0.0000 
    102 H102      -36.9338    0.6603    2.1233 H         1 UNK         0.0000 
    103 H103      -35.6140    1.6814    2.5782 H         1 UNK         0.0000 
    104 H104      -35.3755   -1.3651    2.1389 H         1 UNK         0.0000 
    105 H105      -35.7466   -0.6377    3.6704 H         1 UNK         0.0000 
    106 H106      -33.1589   -0.1488    2.1243 H         1 UNK         0.0000 
    107 H107      -33.5918    0.6326    3.6221 H         1 UNK         0.0000 
    108 H108      -33.3141   -2.3764    3.1562 H         1 UNK         0.0000 
    109 H109      -33.6667   -1.7317    4.7110 H         1 UNK         0.0000 
    110 H110      -31.9738    1.3926    5.7672 H         1 UNK         0.0000 
    111 H111      -31.5684    0.1226    6.9071 H         1 UNK         0.0000 
    112 H112      -33.0510    0.0115    5.9608 H         1 UNK         0.0000 
    113 Fe113     -29.2937   -0.8350    3.0673 Fe        1 UNK         0.0000 
@<TRIPOS>BOND
     1    1    2 ar   
     2    1    6 ar   
     3    1   57 1    
     4    2    3 ar   
     5    2   58 1    
     6    3    4 ar   
     7    3   59 1    
     8    4    5 ar   
     9    4   60 1    
    10    5    6 ar   
    11    5    7 ar   
    12    6   10 ar   
    13    7    8 ar   
    14    7   61 1    
    15    8    9 ar   
    16    8   11 1    
    17    9   10 ar   
    18    9   62 1    
    19   10   63 1    
    20   11   12 am   BACKBONE|DICT|INTERRES
    21   11   64 1    
    22   12   13 2    
    23   12   14 1    
    24   14   15 1    
    25   14   65 1    
    26   14   66 1    
    27   15   16 1    
    28   15   67 1    
    29   15   68 1    
    30   16   17 2    
    31   16   18 am   BACKBONE|DICT|INTERRES
    32   18   19 1    
    33   18   69 1    
    34   19   20 1    
    35   19   70 1    
    36   19   71 1    
    37   20   21 1    
    38   20   72 1    
    39   20   73 1    
    40   21   22 1    
    41   21   74 1    
    42   21   75 1    
    43   22   23 1    
    44   22   76 1    
    45   22   77 1    
    46   23   24 1    
    47   23   78 1    
    48   23   79 1    
    49   24   25 1    
    50   24   26 am   BACKBONE|DICT|INTERRES
    51   25  113 nc   
    52   26   27 2    
    53   26   28 1    
    54   27  113 nc   
    55   28   29 1    
    56   28   80 1    
    57   28   81 1    
    58   29   30 1    
    59   29   82 1    
    60   29   83 1    
    61   30   31 2    
    62   30   32 am   BACKBONE|DICT|INTERRES
    63   32   33 1    
    64   32   84 1    
    65   33   34 1    
    66   33   85 1    
    67   33   86 1    
    68   34   35 1    
    69   34   87 1    
    70   34   88 1    
    71   35   36 1    
    72   35   89 1    
    73   35   90 1    
    74   36   37 1    
    75   36   91 1    
    76   36   92 1    
    77   37   38 1    
    78   37   93 1    
    79   37   94 1    
    80   38   39 1    
    81   38   40 am   BACKBONE|DICT|INTERRES
    82   39  113 nc   
    83   40   41 2    
    84   40   42 1    
    85   41  113 nc   
    86   42   43 1    
    87   42   95 1    
    88   42   96 1    
    89   43   44 1    
    90   43   97 1    
    91   43   98 1    
    92   44   45 2    
    93   44   46 am   BACKBONE|DICT|INTERRES
    94   46   47 1    
    95   46   99 1    
    96   47   48 1    
    97   47  100 1    
    98   47  101 1    
    99   48   49 1    
   100   48  102 1    
   101   48  103 1    
   102   49   50 1    
   103   49  104 1    
   104   49  105 1    
   105   50   51 1    
   106   50  106 1    
   107   50  107 1    
   108   51   52 1    
   109   51  108 1    
   110   51  109 1    
   111   52   53 1    
   112   52   54 am   BACKBONE|DICT|INTERRES
   113   53  113 nc   
   114   54   55 2    
   115   54   56 1    
   116   55  113 nc   
   117   56  110 1    
   118   56  111 1    
   119   56  112 1    
@<TRIPOS>SUBSTRUCTURE
     1 UNK         1 GROUP             0       ****    0 ROOT    
