@<TRIPOS>MOLECULE
217_I_c1
71   80    1
SMALL
USER_CHARGES


@<TRIPOS>ATOM
      1 O1          1.1177   -1.6756    2.3901 O.co2     1 UNK         0.0000 
      2 C2          0.7797   -0.7526    3.2008 C.2       1 UNK         0.0000 
      3 O3          0.1996    0.2938    2.8296 O.co2     1 UNK         0.0000 
      4 C4          1.0608   -0.8584    4.7451 C.3       1 UNK         0.0000 
      5 H5          0.0819   -1.0739    5.1752 H         1 UNK         0.0000 
      6 C6          1.5948    0.4726    5.3316 C.3       1 UNK         0.0000 
      7 S7          3.4014    0.3263    5.2690 S.3       1 UNK         0.0000 
      8 C8          3.3812   -1.4653    5.0092 C.3       1 UNK         0.0000 
      9 H9          3.9959   -1.9091    5.7947 H         1 UNK         0.0000 
     10 N10         2.0023   -1.9166    5.1746 N.3       1 UNK         0.0000 
     11 C11         1.7565   -2.4446    6.5169 C.3       1 UNK         0.0000 
     12 C12         3.9830   -1.8823    3.6400 C.3       1 UNK         0.0000 
     13 H13         3.5793   -1.2450    2.8538 H         1 UNK         0.0000 
     14 N14         3.6173   -3.2586    3.3181 N.pl3     1 UNK         0.0000 
     15 C15         4.5787   -4.0826    3.5281 C.2       1 UNK         0.0000 
     16 S16         6.1292   -3.3228    4.0753 S.3       1 UNK         0.0000 
     17 C17         5.5004   -1.7192    3.5932 C.3       1 UNK         0.0000 
     18 C18         4.5209   -5.5598    3.2919 C.ar      1 UNK         0.0000 
     19 C19         3.4177   -6.2038    2.6744 C.ar      1 UNK         0.0000 
     20 O20         2.3864   -5.5970    2.2598 O.co2     1 UNK         0.0000 
     21 C21         3.4321   -7.5762    2.4365 C.ar      1 UNK         0.0000 
     22 C22         4.5511   -8.3420    2.7662 C.ar      1 UNK         0.0000 
     23 C23         5.6439   -7.7358    3.3639 C.ar      1 UNK         0.0000 
     24 C24         5.6261   -6.3669    3.6299 C.ar      1 UNK         0.0000 
     25 H25         1.2908    0.5504    6.3734 H         1 UNK         0.0000 
     26 H26         1.2687    1.3766    4.8114 H         1 UNK         0.0000 
     27 H27         2.4038   -3.2951    6.7122 H         1 UNK         0.0000 
     28 H28         0.7395   -2.7942    6.6374 H         1 UNK         0.0000 
     29 H29         1.9413   -1.6987    7.2867 H         1 UNK         0.0000 
     30 H30         5.8459   -1.5249    2.5771 H         1 UNK         0.0000 
     31 H31         5.8719   -0.9180    4.2344 H         1 UNK         0.0000 
     32 H32         2.5880   -8.0493    1.9505 H         1 UNK         0.0000 
     33 H33         4.5560   -9.3974    2.5394 H         1 UNK         0.0000 
     34 H34         6.5184   -8.3166    3.6218 H         1 UNK         0.0000 
     35 H35         6.5028   -5.9444    4.0952 H         1 UNK         0.0000 
     36 H36        -4.3376   -2.0437    3.5035 H         1 UNK         0.0000 
     37 C37        -3.3669   -2.5145    3.5499 C.ar      1 UNK         0.0000 
     38 H38        -3.1955   -2.3773    5.6821 H         1 UNK         0.0000 
     39 H39         4.1349   -6.8087   -1.7311 H         1 UNK         0.0000 
     40 C40        -2.7254   -2.6983    4.7672 C.ar      1 UNK         0.0000 
     41 C41         3.9819   -6.4844   -0.7021 C.3       1 UNK         0.0000 
     42 H42         4.9395   -6.1236   -0.3313 H         1 UNK         0.0000 
     43 H43         3.7258   -7.3657   -0.1261 H         1 UNK         0.0000 
     44 C44        -2.7649   -2.9641    2.3790 C.ar      1 UNK         0.0000 
     45 H45        -3.2961   -2.8107    1.4486 H         1 UNK         0.0000 
     46 C46        -1.4659   -3.2876    4.8018 C.ar      1 UNK         0.0000 
     47 H47         4.3702   -4.1952   -1.5054 H         1 UNK         0.0000 
     48 O48         2.5648   -1.9629   -1.2679 O.co2     1 UNK         0.0000 
     49 N49         2.9529   -5.4446   -0.5947 N.3       1 UNK         0.0000 
     50 H50        -0.9785   -3.4183    5.7507 H         1 UNK         0.0000 
     51 C51         3.2870   -4.2578   -1.3822 C.3       1 UNK         0.0000 
     52 C52        -1.5085   -3.5971    2.3923 C.ar      1 UNK         0.0000 
     53 C53         2.8815   -2.9698   -0.6108 C.2       1 UNK         0.0000 
     54 C54        -0.8250   -3.6956    3.6300 C.ar      1 UNK         0.0000 
     55 N55         0.2434   -4.3420    0.8217 N.pl3     1 UNK         0.0000 
     56 H56         1.4549   -6.8571   -0.5137 H         1 UNK         0.0000 
     57 C57         1.5913   -5.8580   -0.9272 C.3       1 UNK         0.0000 
     58 C58        -0.9951   -4.1860    1.1310 C.2       1 UNK         0.0000 
     59 H59         3.4021   -4.5677   -3.5548 H         1 UNK         0.0000 
     60 C60         2.6441   -4.4125   -2.7939 C.3       1 UNK         0.0000 
     61 O61         2.9443   -3.0136    0.6649 O.co2     1 UNK         0.0000 
     62 C62         0.3410   -4.9664   -0.5236 C.3       1 UNK         0.0000 
     63 H63         2.0187   -3.5751   -3.0985 H         1 UNK         0.0000 
     64 S64         1.6323   -5.9175   -2.7334 S.3       1 UNK         0.0000 
     65 H65         0.3163   -4.1165   -1.2134 H         1 UNK         0.0000 
     66 S66        -2.2112   -4.8312   -0.0349 S.3       1 UNK         0.0000 
     67 C67        -0.9218   -5.7925   -0.7742 C.3       1 UNK         0.0000 
     68 H68        -0.8892   -6.7464   -0.2480 H         1 UNK         0.0000 
     69 H69        -1.1346   -5.9776   -1.8269 H         1 UNK         0.0000 
     70 Fe70        1.7697   -3.6796    2.2491 Fe        1 UNK         0.0000 
     71 O71         0.3794   -4.1030    3.7353 O.co2     1 UNK         0.0000 
@<TRIPOS>BOND
     1    1    2 1    
     2    1   70 nc   
     3    2    3 2    
     4    2    4 1    
     5    4    6 1    
     6    4   10 1    
     7    4    5 1    
     8    6    7 1    
     9    6   25 1    
    10    6   26 1    
    11    7    8 1    
    12    8    9 1    
    13    8   10 1    
    14    8   12 1    
    15   10   11 1    
    16   11   27 1    
    17   11   28 1    
    18   11   29 1    
    19   12   14 1    
    20   12   17 1    
    21   12   13 1    
    22   14   15 2    
    23   14   70 nc   
    24   15   16 1    
    25   15   18 1    
    26   16   17 1    
    27   17   30 1    
    28   17   31 1    
    29   18   19 ar   
    30   18   24 ar   
    31   19   20 1    
    32   19   21 ar   
    33   20   70 nc   
    34   21   22 ar   
    35   21   32 1    
    36   22   23 ar   
    37   22   33 1    
    38   23   24 ar   
    39   23   34 1    
    40   24   35 1    
    41   36   37 1    
    42   37   44 ar   
    43   37   40 ar   
    44   38   40 1    
    45   39   41 1    
    46   40   46 ar   
    47   41   43 1    
    48   41   42 1    
    49   41   49 1    
    50   44   45 1    
    51   44   52 ar   
    52   46   50 1    
    53   46   54 ar   
    54   47   51 1    
    55   48   53 2    
    56   49   51 1    
    57   49   57 1    
    58   51   60 1    
    59   51   53 1    
    60   52   54 ar   
    61   52   58 1    
    62   53   61 1    
    63   54   71 1    
    64   55   58 2    
    65   55   62 1    
    66   55   70 nc   
    67   56   57 1    
    68   57   62 1    
    69   57   64 1    
    70   58   66 1    
    71   59   60 1    
    72   60   64 1    
    73   60   63 1    
    74   61   70 nc   
    75   62   67 1    
    76   62   65 1    
    77   66   67 1    
    78   67   69 1    
    79   67   68 1    
    80   70   71 nc   
@<TRIPOS>SUBSTRUCTURE
     1 UNK         1 GROUP             0       ****    0 ROOT    
