@<TRIPOS>MOLECULE
217_II_c1
71   80    1
SMALL
USER_CHARGES


@<TRIPOS>ATOM
      1 O1          7.2432    0.6649   -2.4024 O.co2     1 UNK         0.0000 
      2 C2          8.2351    1.4587   -2.6854 C.2       1 UNK         0.0000 
      3 O3          9.2171    1.2056   -3.4122 O.co2     1 UNK         0.0000 
      4 C4          8.2265    2.9549   -2.2084 C.3       1 UNK         0.0000 
      5 H5          8.2557    3.5998   -3.0855 H         1 UNK         0.0000 
      6 C6          9.4383    3.2893   -1.2880 C.3       1 UNK         0.0000 
      7 S7          8.8296    3.2183    0.4458 S.3       1 UNK         0.0000 
      8 C8          7.3155    2.5132   -0.1787 C.3       1 UNK         0.0000 
      9 H9          7.7087    1.5094   -0.3315 H         1 UNK         0.0000 
     10 N10         7.0423    3.2730   -1.4124 N.3       1 UNK         0.0000 
     11 C11         5.7754    3.2639   -2.1664 C.3       1 UNK         0.0000 
     12 C12         6.1626    2.1520    0.6955 C.3       1 UNK         0.0000 
     13 H13         6.5410    1.5750    1.5475 H         1 UNK         0.0000 
     14 N14         5.2660    1.2538   -0.0665 N.pl3     1 UNK         0.0000 
     15 C15         4.0544    1.5770    0.2456 C.2       1 UNK         0.0000 
     16 S16         3.7597    3.0045    1.3100 S.3       1 UNK         0.0000 
     17 C17         5.4756    3.4170    1.2406 C.3       1 UNK         0.0000 
     18 C18         2.8754    0.7840   -0.1319 C.ar      1 UNK         0.0000 
     19 C19         3.0006   -0.6065   -0.2579 C.ar      1 UNK         0.0000 
     20 O20         4.1426   -1.1699   -0.1657 O.co2     1 UNK         0.0000 
     21 C21         1.8648   -1.3900   -0.4724 C.ar      1 UNK         0.0000 
     22 C22         0.6044   -0.7931   -0.6009 C.ar      1 UNK         0.0000 
     23 C23         0.4799    0.5934   -0.5119 C.ar      1 UNK         0.0000 
     24 C24         1.6054    1.3767   -0.2569 C.ar      1 UNK         0.0000 
     25 H25         9.7717    4.3146   -1.4631 H         1 UNK         0.0000 
     26 H26        10.2905    2.6149   -1.4246 H         1 UNK         0.0000 
     27 H27         4.9531    3.6647   -1.5755 H         1 UNK         0.0000 
     28 H28         5.4868    2.2696   -2.5059 H         1 UNK         0.0000 
     29 H29         5.8764    3.8844   -3.0637 H         1 UNK         0.0000 
     30 H30         5.8363    3.6706    2.2391 H         1 UNK         0.0000 
     31 H31         5.5901    4.3071    0.6135 H         1 UNK         0.0000 
     32 H32         1.9686   -2.4608   -0.5554 H         1 UNK         0.0000 
     33 H33        -0.2634   -1.4085   -0.7884 H         1 UNK         0.0000 
     34 H34        -0.4936    1.0504   -0.6135 H         1 UNK         0.0000 
     35 H35         1.4705    2.4505   -0.1336 H         1 UNK         0.0000 
     36 Fe36        5.7211   -0.6157   -1.3842 Fe        1 UNK         0.0000 
     37 O37         7.4996   -1.3966   -0.7650 O.co2     1 UNK         0.0000 
     38 C38         8.3104   -2.1410   -1.4663 C.2       1 UNK         0.0000 
     39 O39         9.2321   -2.7402   -0.8652 O.co2     1 UNK         0.0000 
     40 C40         8.2892   -2.4277   -3.0581 C.3       1 UNK         0.0000 
     41 H41         9.3312   -2.7270   -3.1826 H         1 UNK         0.0000 
     42 C42         7.5679   -3.6865   -3.5906 C.3       1 UNK         0.0000 
     43 S43         6.4037   -3.1317   -4.9132 S.3       1 UNK         0.0000 
     44 C44         6.8013   -1.3678   -4.8058 C.3       1 UNK         0.0000 
     45 H45         7.0807   -1.1412   -5.8381 H         1 UNK         0.0000 
     46 N46         8.0699   -1.3249   -4.0449 N.3       1 UNK         0.0000 
     47 C47         9.2472   -1.2137   -4.9362 C.3       1 UNK         0.0000 
     48 C48         5.6719   -0.2298   -4.5318 C.3       1 UNK         0.0000 
     49 H49         6.1969    0.7164   -4.4464 H         1 UNK         0.0000 
     50 N50         4.8138   -0.4723   -3.3586 N.pl3     1 UNK         0.0000 
     51 C51         3.8586   -1.2309   -3.7806 C.2       1 UNK         0.0000 
     52 S52         3.3197   -0.9949   -5.4670 S.3       1 UNK         0.0000 
     53 C53         4.7380    0.0619   -5.7091 C.3       1 UNK         0.0000 
     54 C54         3.4616   -2.4773   -3.0881 C.ar      1 UNK         0.0000 
     55 C55         4.3868   -3.1380   -2.2500 C.ar      1 UNK         0.0000 
     56 O56         5.5142   -2.6048   -1.9536 O.co2     1 UNK         0.0000 
     57 C57         4.1034   -4.4043   -1.7201 C.ar      1 UNK         0.0000 
     58 C58         2.8925   -5.0336   -2.0146 C.ar      1 UNK         0.0000 
     59 C59         1.9665   -4.3855   -2.8273 C.ar      1 UNK         0.0000 
     60 C60         2.2415   -3.1209   -3.3594 C.ar      1 UNK         0.0000 
     61 H61         7.0734   -4.2518   -2.7974 H         1 UNK         0.0000 
     62 H62         8.2806   -4.3876   -4.0372 H         1 UNK         0.0000 
     63 H63         9.1998   -0.3526   -5.6118 H         1 UNK         0.0000 
     64 H64         9.3466   -2.1184   -5.5435 H         1 UNK         0.0000 
     65 H65        10.1789   -1.0990   -4.3670 H         1 UNK         0.0000 
     66 H66         4.3693    1.0950   -5.6448 H         1 UNK         0.0000 
     67 H67         5.2031   -0.1101   -6.6807 H         1 UNK         0.0000 
     68 H68         4.8349   -4.8989   -1.0903 H         1 UNK         0.0000 
     69 H69         2.6713   -6.0139   -1.6156 H         1 UNK         0.0000 
     70 H70         1.0269   -4.8642   -3.0432 H         1 UNK         0.0000 
     71 H71         1.5155   -2.6709   -4.0242 H         1 UNK         0.0000 
@<TRIPOS>BOND
     1    1    2 1    
     2    1   36 nc   
     3    2    3 2    
     4    2    4 1    
     5    4    6 1    
     6    4   10 1    
     7    4    5 1    
     8    6    7 1    
     9    6   25 1    
    10    6   26 1    
    11    7    8 1    
    12    8   10 1    
    13    8   12 1    
    14    8    9 1    
    15   10   11 1    
    16   11   27 1    
    17   11   28 1    
    18   11   29 1    
    19   12   14 1    
    20   12   17 1    
    21   12   13 1    
    22   14   15 2    
    23   14   36 nc   
    24   15   16 1    
    25   15   18 1    
    26   16   17 1    
    27   17   30 1    
    28   17   31 1    
    29   18   19 ar   
    30   18   24 ar   
    31   19   20 1    
    32   19   21 ar   
    33   20   36 nc   
    34   21   22 ar   
    35   21   32 1    
    36   22   23 ar   
    37   22   33 1    
    38   23   24 ar   
    39   23   34 1    
    40   24   35 1    
    41   36   37 nc   
    42   36   50 nc   
    43   36   56 nc   
    44   37   38 1    
    45   38   39 2    
    46   38   40 1    
    47   40   42 1    
    48   40   46 1    
    49   40   41 1    
    50   42   43 1    
    51   42   61 1    
    52   42   62 1    
    53   43   44 1    
    54   44   46 1    
    55   44   45 1    
    56   44   48 1    
    57   46   47 1    
    58   47   63 1    
    59   47   64 1    
    60   47   65 1    
    61   48   50 1    
    62   48   53 1    
    63   48   49 1    
    64   50   51 2    
    65   51   52 1    
    66   51   54 1    
    67   52   53 1    
    68   53   66 1    
    69   53   67 1    
    70   54   55 ar   
    71   54   60 ar   
    72   55   56 1    
    73   55   57 ar   
    74   57   58 ar   
    75   57   68 1    
    76   58   59 ar   
    77   58   69 1    
    78   59   60 ar   
    79   59   70 1    
    80   60   71 1    
@<TRIPOS>SUBSTRUCTURE
     1 UNK         1 GROUP             0       ****    0 ROOT    
