@<TRIPOS>MOLECULE
064_c1
135   140    1
SMALL
USER_CHARGES


@<TRIPOS>ATOM
      1 Fe1         0.5861   -3.1578   -0.3355 Fe        1 UNK         0.0000 
      2 O2         -2.8282   -7.7397   -5.4744 O.3       1 UNK         0.0000 
      3 C3         -3.6746   -6.6202   -5.2725 C.3       1 UNK         0.0000 
      4 C4         -3.0141   -5.3024   -5.7284 C.3       1 UNK         0.0000 
      5 C5         -1.9423   -4.7840   -4.7686 C.2       1 UNK         0.0000 
      6 C6         -0.6627   -5.6341   -4.7800 C.3       1 UNK         0.0000 
      7 C7         -2.1413   -3.6876   -3.9762 C.2       1 UNK         0.0000 
      8 C8         -3.4108   -2.8200   -3.9778 C.3       1 UNK         0.0000 
      9 C9         -1.2001   -3.3675   -2.9070 C.2       1 UNK         0.0000 
     10 O10        -0.6963   -4.2771   -2.2166 O.co2     1 UNK         0.0000 
     11 N11        -1.0821   -2.0701   -2.4918 N.am      1 UNK         0.0000 
     12 O12        -1.1117   -1.7902   -1.2069 O.co2     1 UNK         0.0000 
     13 C13        -0.7488   -0.8959   -3.3384 C.3       1 UNK         0.0000 
     14 C14         0.0215    0.2832   -2.6185 C.3       1 UNK         0.0000 
     15 C15         0.4241    1.4852   -3.4950 C.3       1 UNK         0.0000 
     16 C16         0.8814    2.8122   -2.7855 C.3       1 UNK         0.0000 
     17 H17         1.0977    3.3915   -3.6876 H         1 UNK         0.0000 
     18 C18        -0.2364    3.7479   -2.2567 C.2       1 UNK         0.0000 
     19 O19        -1.3674    3.2936   -2.1199 O.2       1 UNK         0.0000 
     20 N20         0.0666    5.0534   -2.0951 N.am      1 UNK         0.0000 
     21 C21        -0.9500    6.1208   -1.9667 C.3       1 UNK         0.0000 
     22 H22        -1.9394    5.6757   -1.8361 H         1 UNK         0.0000 
     23 C23        -0.9834    6.9337   -3.2870 C.3       1 UNK         0.0000 
     24 O24        -1.9745    7.9439   -3.3114 O.3       1 UNK         0.0000 
     25 C25        -0.7317    7.0070   -0.7224 C.2       1 UNK         0.0000 
     26 O26        -1.6086    7.0651    0.1355 O.2       1 UNK         0.0000 
     27 N27         0.4561    7.6388   -0.6052 N.am      1 UNK         0.0000 
     28 C28         0.9107    8.3987    0.5806 C.3       1 UNK         0.0000 
     29 H29         1.9848    8.5116    0.4306 H         1 UNK         0.0000 
     30 C30         0.3805    9.8642    0.6137 C.3       1 UNK         0.0000 
     31 O31        -1.0034   10.0472    0.3804 O.3       1 UNK         0.0000 
     32 C32         0.8723    7.5917    1.9010 C.2       1 UNK         0.0000 
     33 O33         0.7930    8.1433    2.9958 O.2       1 UNK         0.0000 
     34 N34         1.0133    6.2764    1.7253 N.am      1 UNK         0.0000 
     35 C35         0.9015    5.2231    2.7067 C.3       1 UNK         0.0000 
     36 C36         0.4300    4.0067    1.8811 C.2       1 UNK         0.0000 
     37 O37        -0.2426    4.1815    0.8697 O.2       1 UNK         0.0000 
     38 N38         0.7431    2.7546    2.2168 N.am      1 UNK         0.0000 
     39 C39         1.7516    2.3235    3.1746 C.3       1 UNK         0.0000 
     40 H40         1.9001    3.1233    3.8976 H         1 UNK         0.0000 
     41 C41         1.2872    1.1387    4.0784 C.3       1 UNK         0.0000 
     42 C42         1.0061   -0.0997    3.2464 C.3       1 UNK         0.0000 
     43 C43         0.2998   -1.3860    3.7983 C.3       1 UNK         0.0000 
     44 N44         0.1075   -2.4091    2.7238 N.am      1 UNK         0.0000 
     45 O45         0.0875   -1.8612    1.5106 O.co2     1 UNK         0.0000 
     46 C46         0.0331   -3.7655    2.8713 C.2       1 UNK         0.0000 
     47 O47         0.3417   -4.4843    1.9093 O.co2     1 UNK         0.0000 
     48 C48        -0.6466   -4.2911    4.0589 C.2       1 UNK         0.0000 
     49 C49        -0.8857   -5.5913    4.3821 C.2       1 UNK         0.0000 
     50 C50        -0.3834   -6.8304    3.6330 C.3       1 UNK         0.0000 
     51 C51        -1.7569   -5.8919    5.6107 C.3       1 UNK         0.0000 
     52 C52        -1.8321   -7.3525    6.0986 C.3       1 UNK         0.0000 
     53 O53        -2.6927   -7.4177    7.2200 O.3       1 UNK         0.0000 
     54 C54         3.1441    2.1398    2.5078 C.2       1 UNK         0.0000 
     55 O55         4.1064    2.3059    3.2440 O.2       1 UNK         0.0000 
     56 N56         3.3941    1.8935    1.1960 N.am      1 UNK         0.0000 
     57 C57         2.6926    1.4730   -0.0392 C.3       1 UNK         0.0000 
     58 H58         1.6327    1.2816    0.1257 H         1 UNK         0.0000 
     59 C59         2.9509    2.6125   -1.0857 C.2       1 UNK         0.0000 
     60 O60         4.0118    3.2175   -0.9646 O.2       1 UNK         0.0000 
     61 N61         2.2245    2.9513   -2.1811 N.am      1 UNK         0.0000 
     62 C62         3.4604    0.2039   -0.5904 C.3       1 UNK         0.0000 
     63 C63         3.8943   -0.9292    0.4081 C.3       1 UNK         0.0000 
     64 C64         4.3243   -2.3255   -0.1911 C.3       1 UNK         0.0000 
     65 N65         3.2637   -3.2124   -0.7632 N.am      1 UNK         0.0000 
     66 O66         2.2148   -2.4984   -1.1602 O.co2     1 UNK         0.0000 
     67 C67         3.1871   -4.5886   -0.6146 C.2       1 UNK         0.0000 
     68 O68         2.0518   -5.0699   -0.4825 O.co2     1 UNK         0.0000 
     69 C69         4.2555   -5.5815   -0.7478 C.2       1 UNK         0.0000 
     70 C70         5.5874   -5.5929   -1.0123 C.2       1 UNK         0.0000 
     71 C71         6.5130   -4.4006   -1.1804 C.3       1 UNK         0.0000 
     72 C72         6.1800   -6.9944   -1.2376 C.3       1 UNK         0.0000 
     73 C73         7.6667   -7.1738   -1.5715 C.3       1 UNK         0.0000 
     74 O74         7.8674   -8.5532   -1.7879 O.3       1 UNK         0.0000 
     75 H75        -2.6637   -7.8503   -6.4149 H         1 UNK         0.0000 
     76 H76        -3.9480   -6.5698   -4.2138 H         1 UNK         0.0000 
     77 H77        -4.6013   -6.7897   -5.8218 H         1 UNK         0.0000 
     78 H78        -2.5786   -5.4103   -6.7142 H         1 UNK         0.0000 
     79 H79        -3.7992   -4.5620   -5.8473 H         1 UNK         0.0000 
     80 H80        -0.8146   -6.5278   -4.1710 H         1 UNK         0.0000 
     81 H81         0.2140   -5.1181   -4.3814 H         1 UNK         0.0000 
     82 H82        -0.4101   -5.9488   -5.7875 H         1 UNK         0.0000 
     83 H83        -3.5361   -2.2054   -3.0828 H         1 UNK         0.0000 
     84 H84        -4.3015   -3.4422   -4.0028 H         1 UNK         0.0000 
     85 H85        -3.4263   -2.1511   -4.8364 H         1 UNK         0.0000 
     86 H86        -1.6765   -0.4930   -3.7465 H         1 UNK         0.0000 
     87 H87        -0.1933   -1.2079   -4.2271 H         1 UNK         0.0000 
     88 H88         0.9197   -0.1091   -2.1544 H         1 UNK         0.0000 
     89 H89        -0.6260    0.6685   -1.8280 H         1 UNK         0.0000 
     90 H90         1.1625    1.1959   -4.2447 H         1 UNK         0.0000 
     91 H91        -0.4640    1.7512   -4.0772 H         1 UNK         0.0000 
     92 H92         1.0258    5.3455   -2.1540 H         1 UNK         0.0000 
     93 H93        -1.1663    6.2607   -4.1255 H         1 UNK         0.0000 
     94 H94        -0.0191    7.4097   -3.4670 H         1 UNK         0.0000 
     95 H95        -1.8684    8.5010   -4.0859 H         1 UNK         0.0000 
     96 H96         1.1098    7.5822   -1.3620 H         1 UNK         0.0000 
     97 H97         0.9050   10.4512   -0.1394 H         1 UNK         0.0000 
     98 H98         0.6212   10.3277    1.5721 H         1 UNK         0.0000 
     99 H99        -1.4273   10.3446    1.1935 H         1 UNK         0.0000 
    100 H100        0.8814    5.9456    0.7800 H         1 UNK         0.0000 
    101 H101        0.1588    5.4724    3.4673 H         1 UNK         0.0000 
    102 H102        1.8723    5.0941    3.1808 H         1 UNK         0.0000 
    103 H103        0.3322    2.0246    1.6523 H         1 UNK         0.0000 
    104 H104        0.3945    1.4359    4.6279 H         1 UNK         0.0000 
    105 H105        2.0517    0.9194    4.8226 H         1 UNK         0.0000 
    106 H106        1.9336   -0.4167    2.7891 H         1 UNK         0.0000 
    107 H107        0.3625    0.2695    2.4537 H         1 UNK         0.0000 
    108 H108       -0.6840   -1.0995    4.1879 H         1 UNK         0.0000 
    109 H109        0.8352   -1.7894    4.6733 H         1 UNK         0.0000 
    110 H110       -1.0485   -3.5316    4.7115 H         1 UNK         0.0000 
    111 H111       -1.2204   -7.3704    3.1936 H         1 UNK         0.0000 
    112 H112        0.3157   -6.6327    2.8276 H         1 UNK         0.0000 
    113 H113        0.1492   -7.5048    4.3004 H         1 UNK         0.0000 
    114 H114       -1.4316   -5.2694    6.4424 H         1 UNK         0.0000 
    115 H115       -2.7728   -5.5761    5.3757 H         1 UNK         0.0000 
    116 H116       -2.2291   -8.0220    5.3256 H         1 UNK         0.0000 
    117 H117       -0.8465   -7.7356    6.3876 H         1 UNK         0.0000 
    118 H118       -2.7130   -8.3194    7.5620 H         1 UNK         0.0000 
    119 H119        4.3583    2.0759    0.9634 H         1 UNK         0.0000 
    120 H120        2.7807    3.5760   -2.7408 H         1 UNK         0.0000 
    121 H121        2.8910   -0.2026   -1.4176 H         1 UNK         0.0000 
    122 H122        4.3833    0.5381   -1.0718 H         1 UNK         0.0000 
    123 H123        3.1569   -1.0855    1.1835 H         1 UNK         0.0000 
    124 H124        4.7604   -0.5364    0.9371 H         1 UNK         0.0000 
    125 H125        4.9166   -2.8555    0.5610 H         1 UNK         0.0000 
    126 H126        5.0143   -2.0996   -0.9980 H         1 UNK         0.0000 
    127 H127        3.8303   -6.5778   -0.6708 H         1 UNK         0.0000 
    128 H128        6.6695   -3.9248   -0.2175 H         1 UNK         0.0000 
    129 H129        6.1121   -3.6905   -1.8982 H         1 UNK         0.0000 
    130 H130        7.5059   -4.6562   -1.5423 H         1 UNK         0.0000 
    131 H131        5.9606   -7.6079   -0.3665 H         1 UNK         0.0000 
    132 H132        5.6218   -7.4548   -2.0572 H         1 UNK         0.0000 
    133 H133        7.9616   -6.6504   -2.4862 H         1 UNK         0.0000 
    134 H134        8.3231   -6.8501   -0.7583 H         1 UNK         0.0000 
    135 H135        8.7747   -8.6862   -2.0685 H         1 UNK         0.0000 
@<TRIPOS>BOND
     1    1   10 nc   
     2    1   12 nc   
     3    1   45 nc   
     4    1   47 nc   
     5    1   66 nc   
     6    1   68 nc   
     7    2    3 1    
     8    2   75 1    
     9    3   76 1    
    10    3    4 1    
    11    3   77 1    
    12    4    5 1    
    13    4   78 1    
    14    4   79 1    
    15    5    6 1    
    16    5    7 2    
    17    6   80 1    
    18    6   81 1    
    19    6   82 1    
    20    7    9 1    
    21    7    8 1    
    22    8   84 1    
    23    8   83 1    
    24    8   85 1    
    25    9   11 am   BACKBONE|DICT|INTERRES
    26    9   10 2    
    27   11   12 1    
    28   11   13 1    
    29   13   14 1    
    30   13   86 1    
    31   13   87 1    
    32   14   88 1    
    33   14   89 1    
    34   14   15 1    
    35   15   16 1    
    36   15   90 1    
    37   15   91 1    
    38   16   17 1    
    39   16   61 1    
    40   16   18 1    
    41   18   19 2    
    42   18   20 am   BACKBONE|DICT|INTERRES
    43   20   21 1    
    44   20   92 1    
    45   21   22 1    
    46   21   25 1    
    47   21   23 1    
    48   23   24 1    
    49   23   93 1    
    50   23   94 1    
    51   24   95 1    
    52   25   27 am   BACKBONE|DICT|INTERRES
    53   25   26 2    
    54   27   28 1    
    55   27   96 1    
    56   28   29 1    
    57   28   30 1    
    58   28   32 1    
    59   30   31 1    
    60   30   98 1    
    61   30   97 1    
    62   31   99 1    
    63   32   34 am   BACKBONE|DICT|INTERRES
    64   32   33 2    
    65   34   35 1    
    66   34  100 1    
    67   35  102 1    
    68   35  101 1    
    69   35   36 1    
    70   36   37 2    
    71   36   38 am   BACKBONE|DICT|INTERRES
    72   38   39 1    
    73   38  103 1    
    74   39   40 1    
    75   39   41 1    
    76   39   54 1    
    77   41  104 1    
    78   41  105 1    
    79   41   42 1    
    80   42   43 1    
    81   42  106 1    
    82   42  107 1    
    83   43  108 1    
    84   43  109 1    
    85   43   44 1    
    86   44   45 1    
    87   44   46 am   BACKBONE|DICT|INTERRES
    88   46   48 1    
    89   46   47 2    
    90   48   49 2    
    91   48  110 1    
    92   49   51 1    
    93   49   50 1    
    94   50  113 1    
    95   50  111 1    
    96   50  112 1    
    97   51   52 1    
    98   51  114 1    
    99   51  115 1    
   100   52  117 1    
   101   52   53 1    
   102   52  116 1    
   103   53  118 1    
   104   54   55 2    
   105   54   56 am   BACKBONE|DICT|INTERRES
   106   56   57 1    
   107   56  119 1    
   108   57   58 1    
   109   57   59 1    
   110   57   62 1    
   111   59   60 2    
   112   59   61 am   BACKBONE|DICT|INTERRES
   113   61  120 1    
   114   62   63 1    
   115   62  121 1    
   116   62  122 1    
   117   63  124 1    
   118   63  123 1    
   119   63   64 1    
   120   64  125 1    
   121   64   65 1    
   122   64  126 1    
   123   65   67 am   BACKBONE|DICT|INTERRES
   124   65   66 1    
   125   67   68 2    
   126   67   69 1    
   127   69   70 2    
   128   69  127 1    
   129   70   71 1    
   130   70   72 1    
   131   71  128 1    
   132   71  129 1    
   133   71  130 1    
   134   72  131 1    
   135   72   73 1    
   136   72  132 1    
   137   73  134 1    
   138   73   74 1    
   139   73  133 1    
   140   74  135 1    
@<TRIPOS>SUBSTRUCTURE
     1 UNK         1 GROUP             0       ****    0 ROOT    
