@<TRIPOS>MOLECULE
184_S_c1
126   133    1
SMALL
USER_CHARGES


@<TRIPOS>ATOM
      1 O1         -0.7671    2.6584    6.9907 O.co2     1 UNK         0.0000 
      2 N2          0.2486    3.1646    6.3357 N.am      1 UNK         0.0000 
      3 C3          1.6335    2.8712    6.7213 C.3       1 UNK         0.0000 
      4 C4          2.3195    1.7301    5.9281 C.3       1 UNK         0.0000 
      5 C5          1.3568    0.8280    5.1364 C.3       1 UNK         0.0000 
      6 C6          0.7641    1.5388    3.8928 C.3       1 UNK         0.0000 
      7 C7         -0.3026    2.7001    4.1066 C.3       1 UNK         0.0000 
      8 H8         -1.1412    2.1450    4.5035 H         1 UNK         0.0000 
      9 C9         -0.1847    3.7805    5.2411 C.2       1 UNK         0.0000 
     10 O10        -0.9457    4.7630    5.4221 O.co2     1 UNK         0.0000 
     11 N11        -0.9300    3.2792    2.9132 N.am      1 UNK         0.0000 
     12 C12        -0.7501    2.7647    1.6976 C.2       1 UNK         0.0000 
     13 O13         0.3303    2.7343    1.1195 O.2       1 UNK         0.0000 
     14 C14        -1.9827    2.1318    1.0629 C.3       1 UNK         0.0000 
     15 C15        -2.2198    0.6408    1.4796 C.3       1 UNK         0.0000 
     16 H16        -1.2836    0.1263    1.2587 H         1 UNK         0.0000 
     17 C17        -3.3125    0.0154    0.5990 C.3       1 UNK         0.0000 
     18 O18        -2.5102    0.2624    2.8493 O.3       1 UNK         0.0000 
     19 C19        -3.2847    0.9939    3.7193 C.2       1 UNK         0.0000 
     20 O20        -3.6099    2.1619    3.4893 O.2       1 UNK         0.0000 
     21 C21        -3.7385    0.2134    4.9794 C.3       1 UNK         0.0000 
     22 H22        -3.2262   -0.7476    4.9777 H         1 UNK         0.0000 
     23 N23        -3.4489    0.9299    6.2645 N.am      1 UNK         0.0000 
     24 C24        -3.1760    0.3545    7.4672 C.2       1 UNK         0.0000 
     25 O25        -2.8792   -0.8348    7.5084 O.2       1 UNK         0.0000 
     26 C26        -3.3567    1.1229    8.8539 C.3       1 UNK         0.0000 
     27 H27        -4.0182    0.4687    9.4325 H         1 UNK         0.0000 
     28 N28        -2.1315    1.3393    9.6084 N.2       1 UNK         0.0000 
     29 C29        -1.8503    2.5941    9.5276 C.2       1 UNK         0.0000 
     30 O30        -2.7656    3.3223    8.7712 O.3       1 UNK         0.0000 
     31 C31        -3.9395    2.5269    8.8089 C.3       1 UNK         0.0000 
     32 C32        -0.5980    3.2929    9.9454 C.ar      1 UNK         0.0000 
     33 C33        -0.1551    4.5346    9.3925 C.ar      1 UNK         0.0000 
     34 O34        -0.8179    5.2299    8.5567 O.co2     1 UNK         0.0000 
     35 C35         1.1389    4.9881    9.6762 C.ar      1 UNK         0.0000 
     36 C36         1.9927    4.2459   10.4942 C.ar      1 UNK         0.0000 
     37 C37         1.5662    3.0530   11.0414 C.ar      1 UNK         0.0000 
     38 C38         0.2823    2.5808   10.7736 C.ar      1 UNK         0.0000 
     39 C39        -5.2742   -0.0296    4.8623 C.3       1 UNK         0.0000 
     40 C40        -6.1958    1.2254    4.6651 C.3       1 UNK         0.0000 
     41 C41        -6.2296    2.2700    5.8162 C.3       1 UNK         0.0000 
     42 C42        -5.7739    3.7469    5.4941 C.3       1 UNK         0.0000 
     43 N43        -4.5502    4.3558    6.1385 N.am      1 UNK         0.0000 
     44 O44        -3.4620    3.5995    5.9804 O.co2     1 UNK         0.0000 
     45 C45        -4.4355    5.6074    6.7196 C.2       1 UNK         0.0000 
     46 O46        -3.3107    5.8741    7.1986 O.co2     1 UNK         0.0000 
     47 C47        -5.6050    6.4969    6.7256 C.2       1 UNK         0.0000 
     48 C48        -5.7668    7.8105    7.0386 C.2       1 UNK         0.0000 
     49 C49        -4.8096    8.8991    7.4870 C.3       1 UNK         0.0000 
     50 C50        -5.2110    9.6911    8.7764 C.3       1 UNK         0.0000 
     51 C51        -6.6924   10.1638    8.9810 C.3       1 UNK         0.0000 
     52 C52        -6.8267   11.2295   10.1202 C.3       1 UNK         0.0000 
     53 C53        -8.2720   11.6206   10.5553 C.3       1 UNK         0.0000 
     54 C54        -8.3732   12.8788   11.4798 C.3       1 UNK         0.0000 
     55 C55        -7.8821   12.6837   12.9426 C.3       1 UNK         0.0000 
     56 C56        -7.4475   13.9702   13.7080 C.3       1 UNK         0.0000 
     57 C57        -8.5407   14.9450   14.2374 C.3       1 UNK         0.0000 
     58 C58        -7.9065   16.0788   15.0971 C.3       1 UNK         0.0000 
     59 C59        -8.8126   17.2825   15.4729 C.3       1 UNK         0.0000 
     60 C60        -9.8714   17.0440   16.5795 C.3       1 UNK         0.0000 
     61 C61        -9.3316   16.9406   18.0337 C.3       1 UNK         0.0000 
     62 C62        -9.4995   18.2125   18.9060 C.3       1 UNK         0.0000 
     63 C63        -8.5085   19.3532   18.5951 C.3       1 UNK         0.0000 
     64 H64         1.6378    2.6238    7.7891 H         1 UNK         0.0000 
     65 H65         2.2306    3.7860    6.6699 H         1 UNK         0.0000 
     66 H66         2.9349    1.1385    6.6018 H         1 UNK         0.0000 
     67 H67         3.0238    2.1835    5.2327 H         1 UNK         0.0000 
     68 H68         0.5623    0.4614    5.7934 H         1 UNK         0.0000 
     69 H69         1.8847   -0.0690    4.8254 H         1 UNK         0.0000 
     70 H70         0.3070    0.7368    3.3039 H         1 UNK         0.0000 
     71 H71         1.5850    1.9110    3.2758 H         1 UNK         0.0000 
     72 H72        -1.9128    3.4680    3.0657 H         1 UNK         0.0000 
     73 H73        -1.7924    2.1660   -0.0094 H         1 UNK         0.0000 
     74 H74        -2.8650    2.7579    1.2133 H         1 UNK         0.0000 
     75 H75        -3.3742   -1.0616    0.7667 H         1 UNK         0.0000 
     76 H76        -3.0993    0.1793   -0.4567 H         1 UNK         0.0000 
     77 H77        -4.2862    0.4544    0.8297 H         1 UNK         0.0000 
     78 H78        -3.6677    1.9312    6.1825 H         1 UNK         0.0000 
     79 H79        -4.6441    2.7212    8.0303 H         1 UNK         0.0000 
     80 H80        -4.4677    2.7485    9.7446 H         1 UNK         0.0000 
     81 H81         1.5112    5.8887    9.2162 H         1 UNK         0.0000 
     82 H82         3.0055    4.5951   10.6684 H         1 UNK         0.0000 
     83 H83         2.2323    2.4523   11.6399 H         1 UNK         0.0000 
     84 H84         0.0048    1.6079   11.1642 H         1 UNK         0.0000 
     85 H85        -5.5996   -0.5741    5.7509 H         1 UNK         0.0000 
     86 H86        -5.4475   -0.7242    4.0353 H         1 UNK         0.0000 
     87 H87        -7.2063    0.8377    4.5602 H         1 UNK         0.0000 
     88 H88        -6.0225    1.6968    3.6947 H         1 UNK         0.0000 
     89 H89        -7.2827    2.3384    6.0821 H         1 UNK         0.0000 
     90 H90        -5.8124    1.8370    6.7148 H         1 UNK         0.0000 
     91 H91        -5.6856    3.8747    4.4145 H         1 UNK         0.0000 
     92 H92        -6.6864    4.2946    5.7083 H         1 UNK         0.0000 
     93 H93        -6.5296    6.0676    6.4235 H         1 UNK         0.0000 
     94 H94        -6.7829    8.1762    6.9243 H         1 UNK         0.0000 
     95 H95        -4.7669    9.6119    6.6609 H         1 UNK         0.0000 
     96 H96        -3.7817    8.5275    7.5747 H         1 UNK         0.0000 
     97 H97        -4.5824   10.5841    8.8000 H         1 UNK         0.0000 
     98 H98        -4.9063    9.1142    9.6530 H         1 UNK         0.0000 
     99 H99        -7.0837   10.5828    8.0497 H         1 UNK         0.0000 
    100 H100       -7.3245    9.3017    9.2078 H         1 UNK         0.0000 
    101 H101       -6.2863   10.8763   10.9984 H         1 UNK         0.0000 
    102 H102       -6.3109   12.1380    9.8036 H         1 UNK         0.0000 
    103 H103       -8.7536   10.7683   11.0418 H         1 UNK         0.0000 
    104 H104       -8.8661   11.8100    9.6592 H         1 UNK         0.0000 
    105 H105       -9.4144   13.2074   11.5078 H         1 UNK         0.0000 
    106 H106       -7.8265   13.7033   11.0166 H         1 UNK         0.0000 
    107 H107       -7.0098   12.0291   12.9193 H         1 UNK         0.0000 
    108 H108       -8.6301   12.1380   13.5224 H         1 UNK         0.0000 
    109 H109       -6.7460   14.5320   13.0863 H         1 UNK         0.0000 
    110 H110       -6.8577   13.6479   14.5682 H         1 UNK         0.0000 
    111 H111       -9.2740   14.4027   14.8377 H         1 UNK         0.0000 
    112 H112       -9.0923   15.3764   13.3992 H         1 UNK         0.0000 
    113 H113       -7.0555   16.4837   14.5442 H         1 UNK         0.0000 
    114 H114       -7.4769   15.6506   16.0057 H         1 UNK         0.0000 
    115 H115       -9.3192   17.6418   14.5752 H         1 UNK         0.0000 
    116 H116       -8.1694   18.1085   15.7817 H         1 UNK         0.0000 
    117 H117      -10.4349   16.1389   16.3453 H         1 UNK         0.0000 
    118 H118      -10.6059   17.8499   16.5253 H         1 UNK         0.0000 
    119 H119       -8.2865   16.6215   18.0464 H         1 UNK         0.0000 
    120 H120       -9.8738   16.1347   18.5294 H         1 UNK         0.0000 
    121 H121       -9.3798   17.9313   19.9535 H         1 UNK         0.0000 
    122 H122      -10.5225   18.5880   18.8316 H         1 UNK         0.0000 
    123 H123       -7.4722   19.0370   18.7227 H         1 UNK         0.0000 
    124 H124       -8.6682   20.1982   19.2652 H         1 UNK         0.0000 
    125 H125       -8.6207   19.7239   17.5763 H         1 UNK         0.0000 
    126 Fe126      -1.9622    4.3008    7.1671 Fe        1 UNK         0.0000 
@<TRIPOS>BOND
     1    1    2 1    
     2    1  126 nc   
     3    2    3 1    
     4    2    9 am   BACKBONE|DICT|INTERRES
     5    3    4 1    
     6    3   64 1    
     7    3   65 1    
     8    4    5 1    
     9    4   66 1    
    10    4   67 1    
    11    5    6 1    
    12    5   68 1    
    13    5   69 1    
    14    6    7 1    
    15    6   70 1    
    16    6   71 1    
    17    7    8 1    
    18    7    9 1    
    19    7   11 1    
    20    9   10 2    
    21   10  126 nc   
    22   11   12 am   BACKBONE|DICT|INTERRES
    23   11   72 1    
    24   12   13 2    
    25   12   14 1    
    26   14   73 1    
    27   14   74 1    
    28   14   15 1    
    29   15   17 1    
    30   15   18 1    
    31   15   16 1    
    32   17   75 1    
    33   17   76 1    
    34   17   77 1    
    35   18   19 1    
    36   19   20 2    
    37   19   21 1    
    38   21   22 1    
    39   21   23 1    
    40   21   39 1    
    41   23   24 am   BACKBONE|DICT|INTERRES
    42   23   78 1    
    43   24   25 2    
    44   24   26 1    
    45   26   27 1    
    46   26   28 1    
    47   26   31 1    
    48   28   29 2    
    49   29   30 1    
    50   29   32 1    
    51   30   31 1    
    52   30  126 nc   
    53   31   79 1    
    54   31   80 1    
    55   32   33 ar   
    56   32   38 ar   
    57   33   34 1    
    58   33   35 ar   
    59   34  126 nc   
    60   35   36 ar   
    61   35   81 1    
    62   36   37 ar   
    63   36   82 1    
    64   37   38 ar   
    65   37   83 1    
    66   38   84 1    
    67   39   40 1    
    68   39   85 1    
    69   39   86 1    
    70   40   41 1    
    71   40   87 1    
    72   40   88 1    
    73   41   42 1    
    74   41   89 1    
    75   41   90 1    
    76   42   43 1    
    77   42   91 1    
    78   42   92 1    
    79   43   44 1    
    80   43   45 am   BACKBONE|DICT|INTERRES
    81   44  126 nc   
    82   45   46 2    
    83   45   47 1    
    84   46  126 nc   
    85   47   48 2    
    86   47   93 1    
    87   48   49 1    
    88   48   94 1    
    89   49   50 1    
    90   49   95 1    
    91   49   96 1    
    92   50   51 1    
    93   50   97 1    
    94   50   98 1    
    95   51   52 1    
    96   51   99 1    
    97   51  100 1    
    98   52   53 1    
    99   52  101 1    
   100   52  102 1    
   101   53   54 1    
   102   53  103 1    
   103   53  104 1    
   104   54   55 1    
   105   54  105 1    
   106   54  106 1    
   107   55   56 1    
   108   55  107 1    
   109   55  108 1    
   110   56   57 1    
   111   56  109 1    
   112   56  110 1    
   113   57   58 1    
   114   57  111 1    
   115   57  112 1    
   116   58   59 1    
   117   58  113 1    
   118   58  114 1    
   119   59   60 1    
   120   59  115 1    
   121   59  116 1    
   122   60   61 1    
   123   60  117 1    
   124   60  118 1    
   125   61   62 1    
   126   61  119 1    
   127   61  120 1    
   128   62   63 1    
   129   62  121 1    
   130   62  122 1    
   131   63  123 1    
   132   63  124 1    
   133   63  125 1    
@<TRIPOS>SUBSTRUCTURE
     1 UNK         1 GROUP             0       ****    0 ROOT    
