@<TRIPOS>MOLECULE
125_c1
98   104    1
SMALL
USER_CHARGES


@<TRIPOS>ATOM
      1 O1          7.3894   38.1332    8.2269 O.co2     1 UNK         0.0000 
      2 N2          7.9825   39.0705    8.9882 N.am      1 UNK         0.0000 
      3 C3          7.0293   39.9627    9.6927 C.3       1 UNK         0.0000 
      4 C4          7.6850   40.5722   10.9535 C.3       1 UNK         0.0000 
      5 C5          9.0573   41.1634   10.6041 C.3       1 UNK         0.0000 
      6 C6          9.9749   40.0086   10.0680 C.3       1 UNK         0.0000 
      7 H7          9.8600   39.0949   10.6575 H         1 UNK         0.0000 
      8 C8          9.3030   39.4142    8.7590 C.2       1 UNK         0.0000 
      9 O9          9.8526   39.0845    7.6770 O.co2     1 UNK         0.0000 
     10 N10        11.4719   40.0987   10.1892 N.am      1 UNK         0.0000 
     11 C11        12.1789   41.1084   10.7577 C.2       1 UNK         0.0000 
     12 O12        11.9691   42.2990   10.5633 O.2       1 UNK         0.0000 
     13 C13        13.1615   40.7391   11.9392 C.3       1 UNK         0.0000 
     14 H14        12.5190   41.0161   12.7740 H         1 UNK         0.0000 
     15 C15        14.4743   41.5986   12.2121 C.3       1 UNK         0.0000 
     16 C16        15.6316   41.7308   11.1498 C.3       1 UNK         0.0000 
     17 C17        17.0035   42.1950   11.7223 C.3       1 UNK         0.0000 
     18 N18        16.9260   43.5929   12.3401 N.4       1 UNK         0.0000 
     19 H19        16.5317   44.2456   11.6727 H         1 UNK         0.0000 
     20 H20        16.3608   43.5853   13.1803 H         1 UNK         0.0000 
     21 H21        17.8609   43.9090   12.5856 H         1 UNK         0.0000 
     22 N22        13.2404   39.2957   12.2669 N.am      1 UNK         0.0000 
     23 C23        14.0187   38.4214   11.6268 C.2       1 UNK         0.0000 
     24 O24        14.9847   38.7596   10.9654 O.2       1 UNK         0.0000 
     25 C25        13.6303   36.9203   11.4865 C.3       1 UNK         0.0000 
     26 H26        14.5214   36.3658   11.7935 H         1 UNK         0.0000 
     27 N27        12.5310   36.5941   12.4762 N.4       1 UNK         0.0000 
     28 H28        12.7854   37.0354   13.3518 H         1 UNK         0.0000 
     29 H29        11.6578   36.9698   12.1256 H         1 UNK         0.0000 
     30 C30        12.3360   35.0970   12.7580 C.3       1 UNK         0.0000 
     31 C31        13.3275   36.6933    9.9758 C.3       1 UNK         0.0000 
     32 C32        12.1000   35.8991    9.5241 C.3       1 UNK         0.0000 
     33 C33        12.0502   36.0662    7.9919 C.3       1 UNK         0.0000 
     34 N34        10.7576   35.9562    7.3115 N.am      1 UNK         0.0000 
     35 O35         9.7094   36.3281    8.0518 O.co2     1 UNK         0.0000 
     36 C36        10.8523   36.2168    5.9964 C.2       1 UNK         0.0000 
     37 O37        10.0672   37.0616    5.5334 O.co2     1 UNK         0.0000 
     38 C38        11.8824   35.4819    5.1342 C.3       1 UNK         0.0000 
     39 C39        11.7731   33.9341    5.1056 C.3       1 UNK         0.0000 
     40 N40        10.4578   33.3487    4.8515 N.am      1 UNK         0.0000 
     41 C41         9.8475   33.4160    3.6667 C.2       1 UNK         0.0000 
     42 O42        10.2128   34.1782    2.7819 O.2       1 UNK         0.0000 
     43 C43         8.5765   32.5875    3.4359 C.3       1 UNK         0.0000 
     44 C44         7.2530   32.9541    4.1823 C.3       1 UNK         0.0000 
     45 N45         7.2606   33.9913    5.2228 N.am      1 UNK         0.0000 
     46 C46         7.5003   35.3314    5.1774 C.2       1 UNK         0.0000 
     47 O47         7.6096   35.9401    6.2565 O.co2     1 UNK         0.0000 
     48 C48         7.8451   36.1657    3.8848 C.3       1 UNK         0.0000 
     49 H49         8.9033   35.8797    3.8281 H         1 UNK         0.0000 
     50 N50         7.3413   35.5501    2.6227 N.4       1 UNK         0.0000 
     51 H51         6.4124   35.1923    2.7717 H         1 UNK         0.0000 
     52 H52         7.2517   36.3234    1.9736 H         1 UNK         0.0000 
     53 H53         7.9592   34.8223    2.3030 H         1 UNK         0.0000 
     54 C54         7.5059   37.7085    3.9583 C.3       1 UNK         0.0000 
     55 H55         8.2240   38.1140    3.2291 H         1 UNK         0.0000 
     56 O56         7.6240   38.4378    5.1683 O.co2     1 UNK         0.0000 
     57 C57         6.1859   38.1315    3.3517 C.ar      1 UNK         0.0000 
     58 N58         5.0270   37.3460    3.2421 N.pl3     1 UNK         0.0000 
     59 H59         4.7696   36.5152    3.7545 H         1 UNK         0.0000 
     60 C60         4.1764   38.0231    2.4737 C.ar      1 UNK         0.0000 
     61 N61         4.6267   39.2129    2.1280 N.2       1 UNK         0.0000 
     62 C62         5.8643   39.3353    2.7458 C.ar      1 UNK         0.0000 
     63 H63         6.1585   39.3809   10.0034 H         1 UNK         0.0000 
     64 H64         6.6602   40.7052    8.9743 H         1 UNK         0.0000 
     65 H65         7.8098   39.7599   11.6695 H         1 UNK         0.0000 
     66 H66         7.0060   41.2947   11.4045 H         1 UNK         0.0000 
     67 H67         9.4798   41.6641   11.4792 H         1 UNK         0.0000 
     68 H68         8.9274   41.9210    9.8220 H         1 UNK         0.0000 
     69 H69        11.8999   39.2034   10.3240 H         1 UNK         0.0000 
     70 H70        14.9068   41.1957   13.1329 H         1 UNK         0.0000 
     71 H71        14.1300   42.5978   12.4838 H         1 UNK         0.0000 
     72 H72        15.3182   42.3575   10.3108 H         1 UNK         0.0000 
     73 H73        15.8758   40.7923   10.6699 H         1 UNK         0.0000 
     74 H74        17.7573   42.2666   10.9368 H         1 UNK         0.0000 
     75 H75        17.3976   41.5336   12.5014 H         1 UNK         0.0000 
     76 H76        12.5341   39.0237   12.9344 H         1 UNK         0.0000 
     77 H77        13.2750   34.6801   13.1272 H         1 UNK         0.0000 
     78 H78        12.0334   34.5890   11.8415 H         1 UNK         0.0000 
     79 H79        11.5435   34.9953   13.4955 H         1 UNK         0.0000 
     80 H80        14.2213   36.2831    9.4954 H         1 UNK         0.0000 
     81 H81        13.2016   37.6771    9.4961 H         1 UNK         0.0000 
     82 H82        11.2005   36.2677   10.0233 H         1 UNK         0.0000 
     83 H83        12.1951   34.8335    9.7303 H         1 UNK         0.0000 
     84 H84        12.8472   35.4455    7.5622 H         1 UNK         0.0000 
     85 H85        12.3649   37.0820    7.7343 H         1 UNK         0.0000 
     86 H86        11.6586   35.8173    4.1218 H         1 UNK         0.0000 
     87 H87        12.9083   35.8545    5.2052 H         1 UNK         0.0000 
     88 H88        11.8769   33.6152    6.1445 H         1 UNK         0.0000 
     89 H89        12.6434   33.4428    4.6933 H         1 UNK         0.0000 
     90 H90        10.0441   32.8350    5.6159 H         1 UNK         0.0000 
     91 H91         8.7956   31.5204    3.5111 H         1 UNK         0.0000 
     92 H92         8.3437   32.5946    2.3694 H         1 UNK         0.0000 
     93 H93         6.8728   32.0070    4.5958 H         1 UNK         0.0000 
     94 H94         6.4232   33.0688    3.4785 H         1 UNK         0.0000 
     95 H95         7.0822   33.6520    6.1570 H         1 UNK         0.0000 
     96 H96         3.2101   37.6325    2.1767 H         1 UNK         0.0000 
     97 H97         6.4449   40.2368    2.6998 H         1 UNK         0.0000 
     98 Fe98        8.6894   37.5907    6.8030 Fe        1 UNK         0.0000 
@<TRIPOS>BOND
     1    1    2 1    
     2    1   98 nc   
     3    2    3 1    
     4    2    8 am   BACKBONE|DICT|INTERRES
     5    3    4 1    
     6    3   63 1    
     7    3   64 1    
     8    4    5 1    
     9    4   65 1    
    10    4   66 1    
    11    5    6 1    
    12    5   67 1    
    13    5   68 1    
    14    6    7 1    
    15    6    8 1    
    16    6   10 1    
    17    8    9 2    
    18    9   98 nc   
    19   10   11 am   BACKBONE|DICT|INTERRES
    20   10   69 1    
    21   11   12 2    
    22   11   13 1    
    23   13   15 1    
    24   13   22 1    
    25   13   14 1    
    26   15   16 1    
    27   15   70 1    
    28   15   71 1    
    29   16   17 1    
    30   16   72 1    
    31   16   73 1    
    32   17   18 1    
    33   17   74 1    
    34   17   75 1    
    35   18   19 1    
    36   18   20 1    
    37   18   21 1    
    38   22   23 am   BACKBONE|DICT|INTERRES
    39   22   76 1    
    40   23   24 2    
    41   23   25 1    
    42   25   26 1    
    43   25   27 1    
    44   25   31 1    
    45   27   28 1    
    46   27   29 1    
    47   27   30 1    
    48   30   77 1    
    49   30   78 1    
    50   30   79 1    
    51   31   32 1    
    52   31   80 1    
    53   31   81 1    
    54   32   33 1    
    55   32   82 1    
    56   32   83 1    
    57   33   34 1    
    58   33   84 1    
    59   33   85 1    
    60   34   35 1    
    61   34   36 am   BACKBONE|DICT|INTERRES
    62   35   98 nc   
    63   36   37 2    
    64   36   38 1    
    65   37   98 nc   
    66   38   39 1    
    67   38   86 1    
    68   38   87 1    
    69   39   40 1    
    70   39   88 1    
    71   39   89 1    
    72   40   41 am   BACKBONE|DICT|INTERRES
    73   40   90 1    
    74   41   42 2    
    75   41   43 1    
    76   43   44 1    
    77   43   91 1    
    78   43   92 1    
    79   44   45 1    
    80   44   93 1    
    81   44   94 1    
    82   45   46 am   BACKBONE|DICT|INTERRES
    83   45   95 1    
    84   46   47 2    
    85   46   48 1    
    86   47   98 nc   
    87   48   49 1    
    88   48   50 1    
    89   48   54 1    
    90   50   51 1    
    91   50   52 1    
    92   50   53 1    
    93   54   56 1    
    94   54   57 1    
    95   54   55 1    
    96   56   98 nc   
    97   57   58 ar   
    98   57   62 ar   
    99   58   59 1    
   100   58   60 ar   
   101   60   61 ar   
   102   60   96 1    
   103   61   62 ar   
   104   62   97 1    
@<TRIPOS>SUBSTRUCTURE
     1 UNK         1 GROUP             0       ****    0 ROOT    
