@<TRIPOS>MOLECULE
232_c1
141   146    1
SMALL
USER_CHARGES


@<TRIPOS>ATOM
      1 O1          9.4367    5.7104   -5.4676 O.3       1 UNK         0.0000 
      2 C2          9.6807    4.6644   -4.5514 C.3       1 UNK         0.0000 
      3 C3          8.7300    4.7899   -3.3342 C.3       1 UNK         0.0000 
      4 H4          7.7223    4.9714   -3.7214 H         1 UNK         0.0000 
      5 N5          9.0424    6.0284   -2.4656 N.4       1 UNK         0.0000 
      6 H6          8.4387    5.9099   -1.6569 H         1 UNK         0.0000 
      7 H7         10.0056    5.9904   -2.1618 H         1 UNK         0.0000 
      8 C8          8.7427    7.4127   -3.0647 C.3       1 UNK         0.0000 
      9 C9          8.6372    3.5511   -2.3895 C.3       1 UNK         0.0000 
     10 H10         8.3181    2.6923   -2.9886 H         1 UNK         0.0000 
     11 O11         7.5937    3.9045   -1.4836 O.3       1 UNK         0.0000 
     12 C12         9.9457    3.1727   -1.6030 C.3       1 UNK         0.0000 
     13 H13        10.1867    4.0246   -0.9623 H         1 UNK         0.0000 
     14 O14        11.0438    3.0578   -2.4860 O.3       1 UNK         0.0000 
     15 C15         9.8748    1.9322   -0.6438 C.3       1 UNK         0.0000 
     16 H16        10.8776    1.7716   -0.2499 H         1 UNK         0.0000 
     17 O17         9.0673    2.2718    0.4723 O.3       1 UNK         0.0000 
     18 C18         9.3637    0.5938   -1.2529 C.3       1 UNK         0.0000 
     19 H19         8.3492    0.7793   -1.6014 H         1 UNK         0.0000 
     20 C20        10.1339    0.1042   -2.4887 C.2       1 UNK         0.0000 
     21 O21         9.6920    0.3093   -3.6162 O.2       1 UNK         0.0000 
     22 O22         9.1863   -0.4249   -0.2634 O.3       1 UNK         0.0000 
     23 C23        10.2580   -1.0679    0.3626 C.3       1 UNK         0.0000 
     24 H24        11.2051   -0.9460   -0.1552 H         1 UNK         0.0000 
     25 C25        10.3960   -0.5191    1.8258 C.2       1 UNK         0.0000 
     26 N26        11.3249    0.2421    2.2830 N.2       1 UNK         0.0000 
     27 O27        12.3309    0.5749    1.3612 O.3       1 UNK         0.0000 
     28 C28         9.2264   -0.9202    2.7453 C.3       1 UNK         0.0000 
     29 H29         8.6733   -0.0109    2.9937 H         1 UNK         0.0000 
     30 O30         9.7658   -1.3619    3.9918 O.3       1 UNK         0.0000 
     31 C31         8.2568   -1.9275    2.0907 C.3       1 UNK         0.0000 
     32 H32         7.7515   -2.4762    2.8917 H         1 UNK         0.0000 
     33 O33         7.1968   -1.2349    1.4434 O.3       1 UNK         0.0000 
     34 O34        10.0463   -2.4510    0.3353 O.3       1 UNK         0.0000 
     35 C35         8.9495   -2.9530    1.1354 C.3       1 UNK         0.0000 
     36 H36         8.1724   -3.3263    0.4665 H         1 UNK         0.0000 
     37 C37         9.4799   -4.1778    1.8910 C.3       1 UNK         0.0000 
     38 O38        10.6661   -3.8259    2.5858 O.3       1 UNK         0.0000 
     39 C39        11.3032   -4.6238    3.4504 C.2       1 UNK         0.0000 
     40 O40        12.3685   -4.2882    3.9557 O.2       1 UNK         0.0000 
     41 C41        10.6452   -5.9481    3.8485 C.3       1 UNK         0.0000 
     42 C42        10.2528   -5.9591    5.3387 C.3       1 UNK         0.0000 
     43 C43         9.6924   -7.3244    5.7395 C.2       1 UNK         0.0000 
     44 O44        10.4578   -8.3005    5.6676 O.co2     1 UNK         0.0000 
     45 N45         8.4191   -7.5079    6.2037 N.am      1 UNK         0.0000 
     46 O46         7.9663   -8.6773    6.6778 O.co2     1 UNK         0.0000 
     47 C47         7.4081   -6.4182    6.3113 C.3       1 UNK         0.0000 
     48 C48         6.9499   -5.7143    5.0033 C.3       1 UNK         0.0000 
     49 C49         5.9147   -6.4302    4.1037 C.3       1 UNK         0.0000 
     50 C50         6.4608   -7.3775    2.9953 C.3       1 UNK         0.0000 
     51 C51         6.6225   -8.8449    3.4297 C.3       1 UNK         0.0000 
     52 N52         7.3200   -9.7656    2.5201 N.am      1 UNK         0.0000 
     53 C53         8.6062   -9.6736    2.1354 C.2       1 UNK         0.0000 
     54 O54         9.2690   -8.6586    2.2979 O.2       1 UNK         0.0000 
     55 C55         9.3061  -10.9715    1.6903 C.3       1 UNK         0.0000 
     56 C56         9.5213  -12.0813    2.7818 C.3       1 UNK         0.0000 
     57 C57         9.8212  -11.5533    4.1965 C.2       1 UNK         0.0000 
     58 O58         8.9995  -10.7829    4.7072 O.co2     1 UNK         0.0000 
     59 N59        10.9630  -11.8302    4.8819 N.am      1 UNK         0.0000 
     60 O60        11.3925  -11.0818    5.9102 O.co2     1 UNK         0.0000 
     61 C61        11.4437  -13.2284    4.9898 C.3       1 UNK         0.0000 
     62 C62        10.8115  -13.9826    6.2030 C.3       1 UNK         0.0000 
     63 C63        11.6683  -15.1463    6.7445 C.3       1 UNK         0.0000 
     64 C64        12.4780  -14.8553    8.0405 C.3       1 UNK         0.0000 
     65 C65        13.1237  -13.4489    8.2128 C.3       1 UNK         0.0000 
     66 N66        12.3156  -12.4967    9.0018 N.am      1 UNK         0.0000 
     67 C67        12.0915  -12.6267   10.3287 C.2       1 UNK         0.0000 
     68 O68        12.5986  -13.5448   10.9559 O.2       1 UNK         0.0000 
     69 C69        11.1844  -11.6785   11.1308 C.3       1 UNK         0.0000 
     70 C70        10.5322  -10.3951   10.5368 C.3       1 UNK         0.0000 
     71 C71         9.9614  -10.4293    9.1061 C.2       1 UNK         0.0000 
     72 O72        10.4354   -9.6399    8.2713 O.co2     1 UNK         0.0000 
     73 N73         9.0107  -11.3312    8.7112 N.am      1 UNK         0.0000 
     74 O74         8.6160  -11.5604    7.4541 O.co2     1 UNK         0.0000 
     75 C75         8.2817  -12.1976    9.6444 C.3       1 UNK         0.0000 
     76 C76         8.5855  -13.6859    9.3961 C.3       1 UNK         0.0000 
     77 C77         7.7698  -14.5844   10.3071 C.3       1 UNK         0.0000 
     78 C78         8.1259  -16.0613   10.1059 C.3       1 UNK         0.0000 
     79 C79         7.3377  -16.9565   11.0607 C.3       1 UNK         0.0000 
     80 O80         7.6974  -18.2979   10.8421 O.3       1 UNK         0.0000 
     81 H81         9.9153    5.5322   -6.2936 H         1 UNK         0.0000 
     82 H82        10.7337    4.6995   -4.2677 H         1 UNK         0.0000 
     83 H83         9.5044    3.7102   -5.0523 H         1 UNK         0.0000 
     84 H84         7.7239    7.4037   -3.4523 H         1 UNK         0.0000 
     85 H85         9.4767    7.6288   -3.8394 H         1 UNK         0.0000 
     86 H86         8.8428    8.1105   -2.2355 H         1 UNK         0.0000 
     87 H87         6.9481    3.1772   -1.4231 H         1 UNK         0.0000 
     88 H88        11.8368    2.8127   -1.9844 H         1 UNK         0.0000 
     89 H89         9.6321    2.5888    1.1890 H         1 UNK         0.0000 
     90 H90        11.1026   -0.3660   -2.3173 H         1 UNK         0.0000 
     91 H91        13.0219    0.9761    1.9043 H         1 UNK         0.0000 
     92 H92        10.5669   -0.8402    4.1536 H         1 UNK         0.0000 
     93 H93         6.6761   -0.8104    2.1383 H         1 UNK         0.0000 
     94 H94         8.6991   -4.5343    2.5685 H         1 UNK         0.0000 
     95 H95         9.6940   -4.9824    1.1808 H         1 UNK         0.0000 
     96 H96        11.3500   -6.7459    3.6346 H         1 UNK         0.0000 
     97 H97         9.7657   -6.1870    3.2597 H         1 UNK         0.0000 
     98 H98        11.1453   -5.7886    5.9485 H         1 UNK         0.0000 
     99 H99         9.6068   -5.1133    5.5858 H         1 UNK         0.0000 
    100 H100        6.4913   -6.7860    6.7929 H         1 UNK         0.0000 
    101 H101        7.7767   -5.6703    7.0268 H         1 UNK         0.0000 
    102 H102        7.7889   -5.3881    4.4060 H         1 UNK         0.0000 
    103 H103        6.4662   -4.8002    5.3374 H         1 UNK         0.0000 
    104 H104        5.3949   -5.6326    3.5686 H         1 UNK         0.0000 
    105 H105        5.1371   -6.9229    4.6996 H         1 UNK         0.0000 
    106 H106        7.3934   -6.9777    2.5895 H         1 UNK         0.0000 
    107 H107        5.7475   -7.3938    2.1628 H         1 UNK         0.0000 
    108 H108        5.6421   -9.2659    3.6585 H         1 UNK         0.0000 
    109 H109        7.1416   -8.8735    4.3775 H         1 UNK         0.0000 
    110 H110        6.8568  -10.6414    2.3448 H         1 UNK         0.0000 
    111 H111       10.2985  -10.7027    1.3272 H         1 UNK         0.0000 
    112 H112        8.8225  -11.3987    0.8184 H         1 UNK         0.0000 
    113 H113        8.6032  -12.6685    2.8568 H         1 UNK         0.0000 
    114 H114       10.2657  -12.8040    2.4387 H         1 UNK         0.0000 
    115 H115       12.5360  -13.2002    5.1097 H         1 UNK         0.0000 
    116 H116       11.3084  -13.8487    4.0954 H         1 UNK         0.0000 
    117 H117        9.8388  -14.3619    5.8883 H         1 UNK         0.0000 
    118 H118       10.5923  -13.3079    7.0234 H         1 UNK         0.0000 
    119 H119       12.3310  -15.5110    5.9585 H         1 UNK         0.0000 
    120 H120       11.0152  -15.9916    6.9794 H         1 UNK         0.0000 
    121 H121       13.2700  -15.6118    8.1019 H         1 UNK         0.0000 
    122 H122       11.8500  -15.0645    8.9132 H         1 UNK         0.0000 
    123 H123       13.3724  -13.0273    7.2346 H         1 UNK         0.0000 
    124 H124       14.0899  -13.5556    8.7172 H         1 UNK         0.0000 
    125 H125       11.9520  -11.7048    8.4978 H         1 UNK         0.0000 
    126 H126       11.7271  -11.3718   12.0247 H         1 UNK         0.0000 
    127 H127       10.3924  -12.3019   11.5383 H         1 UNK         0.0000 
    128 H128       11.2817   -9.6006   10.5596 H         1 UNK         0.0000 
    129 H129        9.7728  -10.0108   11.2280 H         1 UNK         0.0000 
    130 H130        8.4274  -11.9502   10.7013 H         1 UNK         0.0000 
    131 H131        7.2016  -12.0310    9.5204 H         1 UNK         0.0000 
    132 H132        9.6473  -13.8661    9.5341 H         1 UNK         0.0000 
    133 H133        8.3560  -13.9359    8.3649 H         1 UNK         0.0000 
    134 H134        6.7062  -14.4367   10.1027 H         1 UNK         0.0000 
    135 H135        7.9465  -14.3045   11.3476 H         1 UNK         0.0000 
    136 H136        7.9156  -16.3617    9.0740 H         1 UNK         0.0000 
    137 H137        9.1968  -16.2115   10.2781 H         1 UNK         0.0000 
    138 H138        6.2647  -16.8152   10.9089 H         1 UNK         0.0000 
    139 H139        7.5393  -16.6655   12.0948 H         1 UNK         0.0000 
    140 H140        7.2291  -18.8413   11.4800 H         1 UNK         0.0000 
    141 Fe141       9.6121  -10.0125    6.4397 Fe        1 UNK         0.0000 
@<TRIPOS>BOND
     1    1    2 1    
     2    1   81 1    
     3    2   82 1    
     4    2   83 1    
     5    2    3 1    
     6    3    5 1    
     7    3    4 1    
     8    3    9 1    
     9    5    6 1    
    10    5    7 1    
    11    5    8 1    
    12    8   84 1    
    13    8   85 1    
    14    8   86 1    
    15    9   11 1    
    16    9   10 1    
    17    9   12 1    
    18   11   87 1    
    19   12   14 1    
    20   12   15 1    
    21   12   13 1    
    22   14   88 1    
    23   15   16 1    
    24   15   17 1    
    25   15   18 1    
    26   17   89 1    
    27   18   19 1    
    28   18   20 1    
    29   18   22 1    
    30   20   21 2    
    31   20   90 1    
    32   22   23 1    
    33   23   25 1    
    34   23   34 1    
    35   23   24 1    
    36   25   26 2    
    37   25   28 1    
    38   26   27 1    
    39   27   91 1    
    40   28   31 1    
    41   28   30 1    
    42   28   29 1    
    43   30   92 1    
    44   31   32 1    
    45   31   33 1    
    46   31   35 1    
    47   33   93 1    
    48   34   35 1    
    49   35   37 1    
    50   35   36 1    
    51   37   38 1    
    52   37   94 1    
    53   37   95 1    
    54   38   39 1    
    55   39   40 2    
    56   39   41 1    
    57   41   42 1    
    58   41   96 1    
    59   41   97 1    
    60   42   43 1    
    61   42   98 1    
    62   42   99 1    
    63   43   44 2    
    64   43   45 am   BACKBONE|DICT|INTERRES
    65   44  141 nc   
    66   45   46 1    
    67   45   47 1    
    68   46  141 nc   
    69   47   48 1    
    70   47  100 1    
    71   47  101 1    
    72   48   49 1    
    73   48  102 1    
    74   48  103 1    
    75   49   50 1    
    76   49  104 1    
    77   49  105 1    
    78   50   51 1    
    79   50  106 1    
    80   50  107 1    
    81   51   52 1    
    82   51  108 1    
    83   51  109 1    
    84   52   53 am   BACKBONE|DICT|INTERRES
    85   52  110 1    
    86   53   54 2    
    87   53   55 1    
    88   55   56 1    
    89   55  111 1    
    90   55  112 1    
    91   56   57 1    
    92   56  113 1    
    93   56  114 1    
    94   57   58 2    
    95   57   59 am   BACKBONE|DICT|INTERRES
    96   58  141 nc   
    97   59   60 1    
    98   59   61 1    
    99   60  141 nc   
   100   61   62 1    
   101   61  115 1    
   102   61  116 1    
   103   62   63 1    
   104   62  117 1    
   105   62  118 1    
   106   63   64 1    
   107   63  119 1    
   108   63  120 1    
   109   64   65 1    
   110   64  121 1    
   111   64  122 1    
   112   65   66 1    
   113   65  123 1    
   114   65  124 1    
   115   66   67 am   BACKBONE|DICT|INTERRES
   116   66  125 1    
   117   67   68 2    
   118   67   69 1    
   119   69   70 1    
   120   69  126 1    
   121   69  127 1    
   122   70   71 1    
   123   70  128 1    
   124   70  129 1    
   125   71   72 2    
   126   71   73 am   BACKBONE|DICT|INTERRES
   127   72  141 nc   
   128   73   74 1    
   129   73   75 1    
   130   74  141 nc   
   131   75   76 1    
   132   75  130 1    
   133   75  131 1    
   134   76   77 1    
   135   76  132 1    
   136   76  133 1    
   137   77   78 1    
   138   77  134 1    
   139   77  135 1    
   140   78   79 1    
   141   78  136 1    
   142   78  137 1    
   143   79   80 1    
   144   79  138 1    
   145   79  139 1    
   146   80  140 1    
@<TRIPOS>SUBSTRUCTURE
     1 UNK         1 GROUP             0       ****    0 ROOT    
