@<TRIPOS>MOLECULE
025_r3_c1
77   85    1
SMALL
USER_CHARGES


@<TRIPOS>ATOM
      1 Fe1        -1.6405    2.7151    0.2545 Fe        1 UNK         0.0000 
      2 C2          3.2055    4.8635    0.8011 C.ar      1 UNK         0.0000 
      3 C3          2.4906    6.0800    0.8720 C.ar      1 UNK         0.0000 
      4 C4          1.1020    6.0916    0.6632 C.ar      1 UNK         0.0000 
      5 C5          0.4910    4.8748    0.3733 C.ar      1 UNK         0.0000 
      6 O6         -0.7881    4.5995    0.1079 O.co2     1 UNK         0.0000 
      7 C7          1.1453    3.7522    0.2979 C.ar      1 UNK         0.0000 
      8 O8          0.2357    2.8652   -0.0812 O.co2     1 UNK         0.0000 
      9 C9          2.5374    3.6400    0.5254 C.ar      1 UNK         0.0000 
     10 C10         3.3379    2.3640    0.5043 C.2       1 UNK         0.0000 
     11 O11         4.5445    2.4567    0.3214 O.2       1 UNK         0.0000 
     12 N12         2.8015    1.1293    0.7693 N.am      1 UNK         0.0000 
     13 C13         3.6543   -0.0597    0.8021 C.3       1 UNK         0.0000 
     14 C14         2.9566   -1.3383    1.3234 C.3       1 UNK         0.0000 
     15 C15         1.8356   -1.8579    0.4012 C.3       1 UNK         0.0000 
     16 N16         1.1507   -3.1036    0.8155 N.am      1 UNK         0.0000 
     17 C17         0.1933   -3.6569   -0.0163 C.2       1 UNK         0.0000 
     18 O18        -0.3365   -4.7194    0.2870 O.2       1 UNK         0.0000 
     19 C19        -0.1797   -3.0460   -1.3523 C.3       1 UNK         0.0000 
     20 H20         0.7452   -2.8683   -1.9440 H         1 UNK         0.0000 
     21 N21        -0.8518   -1.7821   -1.2562 N.2       1 UNK         0.0000 
     22 C22        -1.7422   -1.7412   -2.1758 C.2       1 UNK         0.0000 
     23 O23        -1.8625   -2.8895   -2.8735 O.3       1 UNK         0.0000 
     24 C24        -1.1442   -3.8646   -2.2302 C.3       1 UNK         0.0000 
     25 H25        -1.8775   -4.4319   -1.6139 H         1 UNK         0.0000 
     26 C26        -0.4356   -4.8081   -3.2000 C.3       1 UNK         0.0000 
     27 C27        -2.5142   -0.5306   -2.5155 C.ar      1 UNK         0.0000 
     28 C28        -2.5628    0.6315   -1.7147 C.ar      1 UNK         0.0000 
     29 O29        -2.0679    0.8851   -0.4906 O.co2     1 UNK         0.0000 
     30 C30        -3.1772    1.7150   -2.1226 C.ar      1 UNK         0.0000 
     31 O31        -3.0030    2.6533   -1.2089 O.co2     1 UNK         0.0000 
     32 C32        -3.8631    1.8058   -3.3330 C.ar      1 UNK         0.0000 
     33 C33        -3.8873    0.6707   -4.1525 C.ar      1 UNK         0.0000 
     34 C34        -3.2106   -0.4949   -3.7484 C.ar      1 UNK         0.0000 
     35 C35         1.4853   -3.8573    2.0374 C.3       1 UNK         0.0000 
     36 C36         0.3502   -3.7689    3.0872 C.3       1 UNK         0.0000 
     37 C37         0.5336   -2.5085    3.9249 C.3       1 UNK         0.0000 
     38 C38        -0.6065   -2.2003    4.9144 C.3       1 UNK         0.0000 
     39 N39        -1.7743   -1.5763    4.2986 N.am      1 UNK         0.0000 
     40 C40        -1.6781   -0.3696    3.6643 C.2       1 UNK         0.0000 
     41 O41        -0.5807    0.1503    3.5155 O.2       1 UNK         0.0000 
     42 C42        -2.8469    0.4369    3.2400 C.ar      1 UNK         0.0000 
     43 C43        -2.6191    1.5524    2.4435 C.ar      1 UNK         0.0000 
     44 O44        -1.5537    2.0100    1.7777 O.co2     1 UNK         0.0000 
     45 C45        -3.4568    2.4113    2.1280 C.ar      1 UNK         0.0000 
     46 O46        -2.6662    3.2778    1.4221 O.co2     1 UNK         0.0000 
     47 C47        -4.8021    2.3351    2.4876 C.ar      1 UNK         0.0000 
     48 C48        -5.1811    1.1947    3.2440 C.ar      1 UNK         0.0000 
     49 C49        -4.1953    0.2399    3.6351 C.ar      1 UNK         0.0000 
     50 H50         4.2732    4.8820    0.9809 H         1 UNK         0.0000 
     51 H51         3.0120    7.0023    1.0925 H         1 UNK         0.0000 
     52 H52         0.5328    7.0104    0.7126 H         1 UNK         0.0000 
     53 H53         1.8111    1.0408    1.0268 H         1 UNK         0.0000 
     54 H54         4.4971    0.1365    1.5015 H         1 UNK         0.0000 
     55 H55         4.0798   -0.2448   -0.2084 H         1 UNK         0.0000 
     56 H56         2.5830   -1.1279    2.3414 H         1 UNK         0.0000 
     57 H57         3.7397   -2.1244    1.3878 H         1 UNK         0.0000 
     58 H58         2.3077   -2.0224   -0.5906 H         1 UNK         0.0000 
     59 H59         1.0760   -1.0548    0.3077 H         1 UNK         0.0000 
     60 H60         0.2561   -4.2431   -3.8607 H         1 UNK         0.0000 
     61 H61        -1.1861   -5.3271   -3.8324 H         1 UNK         0.0000 
     62 H62         0.1421   -5.5682   -2.6328 H         1 UNK         0.0000 
     63 H63        -4.3579    2.7211   -3.6306 H         1 UNK         0.0000 
     64 H64        -4.4067    0.6972   -5.1015 H         1 UNK         0.0000 
     65 H65        -3.2128   -1.3522   -4.4100 H         1 UNK         0.0000 
     66 H66         1.6453   -4.9198    1.7482 H         1 UNK         0.0000 
     67 H67         2.4428   -3.5591    2.5068 H         1 UNK         0.0000 
     68 H68         0.4220   -4.6262    3.7917 H         1 UNK         0.0000 
     69 H69        -0.6469   -3.8071    2.6013 H         1 UNK         0.0000 
     70 H70         1.4667   -2.6552    4.5135 H         1 UNK         0.0000 
     71 H71         0.7100   -1.6577    3.2597 H         1 UNK         0.0000 
     72 H72        -0.2124   -1.4718    5.6571 H         1 UNK         0.0000 
     73 H73        -0.8891   -3.1184    5.4733 H         1 UNK         0.0000 
     74 H74        -2.6936   -2.0213    4.4308 H         1 UNK         0.0000 
     75 H75        -5.5174    3.0887    2.1864 H         1 UNK         0.0000 
     76 H76        -6.2131    1.0628    3.5413 H         1 UNK         0.0000 
     77 H77        -4.4854   -0.6015    4.2490 H         1 UNK         0.0000 
@<TRIPOS>BOND
     1    1    6 nc   
     2    1    8 nc   
     3    1   29 nc   
     4    1   31 nc   
     5    1   44 nc   
     6    1   46 nc   
     7    2    3 ar   
     8    2   50 1    
     9    2    9 ar   
    10    3   51 1    
    11    3    4 ar   
    12    4   52 1    
    13    4    5 ar   
    14    5    6 1    
    15    5    7 ar   
    16    7    9 ar   
    17    7    8 1    
    18    9   10 1    
    19   10   12 am   BACKBONE|DICT|INTERRES
    20   10   11 2    
    21   12   13 1    
    22   12   53 1    
    23   13   14 1    
    24   13   54 1    
    25   13   55 1    
    26   14   57 1    
    27   14   56 1    
    28   14   15 1    
    29   15   16 1    
    30   15   58 1    
    31   15   59 1    
    32   16   35 1    
    33   16   17 am   BACKBONE|DICT|INTERRES
    34   17   18 2    
    35   17   19 1    
    36   19   20 1    
    37   19   21 1    
    38   19   24 1    
    39   21   22 2    
    40   22   23 1    
    41   22   27 1    
    42   23   24 1    
    43   24   25 1    
    44   24   26 1    
    45   26   62 1    
    46   26   60 1    
    47   26   61 1    
    48   27   28 ar   
    49   27   34 ar   
    50   28   29 1    
    51   28   30 ar   
    52   30   31 1    
    53   30   32 ar   
    54   32   33 ar   
    55   32   63 1    
    56   33   34 ar   
    57   33   64 1    
    58   34   65 1    
    59   35   67 1    
    60   35   36 1    
    61   35   66 1    
    62   36   68 1    
    63   36   37 1    
    64   36   69 1    
    65   37   70 1    
    66   37   38 1    
    67   37   71 1    
    68   38   73 1    
    69   38   72 1    
    70   38   39 1    
    71   39   74 1    
    72   39   40 am   BACKBONE|DICT|INTERRES
    73   40   41 2    
    74   40   42 1    
    75   42   49 ar   
    76   42   43 ar   
    77   43   44 1    
    78   43   45 ar   
    79   45   47 ar   
    80   45   46 1    
    81   47   48 ar   
    82   47   75 1    
    83   48   76 1    
    84   48   49 ar   
    85   49   77 1    
@<TRIPOS>SUBSTRUCTURE
     1 UNK         1 GROUP             0       ****    0 ROOT    
