@<TRIPOS>MOLECULE
192_C_c1
94   100    1
SMALL
USER_CHARGES


@<TRIPOS>ATOM
      1 Fe1         0.3856   -0.1649   -0.8605 Fe        1 UNK         0.0000 
      2 C2         -5.1633    4.1954    0.8625 C.ar      1 UNK         0.0000 
      3 C3         -6.1274    5.1281    1.2305 C.ar      1 UNK         0.0000 
      4 C4         -5.7410    6.4332    1.5243 C.ar      1 UNK         0.0000 
      5 C5         -4.4024    6.8122    1.4537 C.ar      1 UNK         0.0000 
      6 C6         -3.4393    5.8776    1.0839 C.ar      1 UNK         0.0000 
      7 C7         -3.8168    4.5650    0.7881 C.ar      1 UNK         0.0000 
      8 C8         -2.8487    3.5397    0.3864 C.2       1 UNK         0.0000 
      9 C9         -1.5340    3.7042    0.1131 C.2       1 UNK         0.0000 
     10 C10        -0.7359    2.5727   -0.2928 C.2       1 UNK         0.0000 
     11 O11        -1.2262    1.4467   -0.4192 O.co2     1 UNK         0.0000 
     12 N12         0.5704    2.7257   -0.6489 N.am      1 UNK         0.0000 
     13 O13         1.1900    1.7701   -1.3358 O.co2     1 UNK         0.0000 
     14 C14         1.4977    3.7800   -0.1789 C.3       1 UNK         0.0000 
     15 C15         2.8204    3.2560    0.4600 C.3       1 UNK         0.0000 
     16 C16         2.6045    2.2660    1.6299 C.3       1 UNK         0.0000 
     17 C17         3.7964    1.3078    1.9278 C.3       1 UNK         0.0000 
     18 C18         3.4009   -0.1521    2.3311 C.3       1 UNK         0.0000 
     19 H19         4.2362   -0.5888    2.8909 H         1 UNK         0.0000 
     20 C20         3.2640   -1.0738    1.0543 C.2       1 UNK         0.0000 
     21 O21         2.4460   -0.6889    0.1666 O.co2     1 UNK         0.0000 
     22 O22         4.0872   -2.0099    1.0166 O.co2     1 UNK         0.0000 
     23 N23         2.2596   -0.1024    3.2823 N.am      1 UNK         0.0000 
     24 C24         1.3447   -0.9612    3.7605 C.2       1 UNK         0.0000 
     25 O25         0.6025   -0.5418    4.6465 O.2       1 UNK         0.0000 
     26 C26         1.1779   -2.4264    3.2972 C.3       1 UNK         0.0000 
     27 C27        -0.3039   -2.8666    3.0007 C.3       1 UNK         0.0000 
     28 O28        -1.0379   -2.6738    4.2248 O.3       1 UNK         0.0000 
     29 C29        -0.9678   -2.0681    1.7969 C.2       1 UNK         0.0000 
     30 O30        -0.2648   -1.2885    1.0940 O.co2     1 UNK         0.0000 
     31 O31        -2.1817   -2.2616    1.5525 O.co2     1 UNK         0.0000 
     32 C32        -0.5096   -4.4085    2.7998 C.3       1 UNK         0.0000 
     33 C33         0.1571   -5.0821    1.5911 C.2       1 UNK         0.0000 
     34 O34         1.3420   -4.8990    1.3333 O.2       1 UNK         0.0000 
     35 N35        -0.5977   -5.9341    0.8834 N.am      1 UNK         0.0000 
     36 C36        -0.1050   -6.7639   -0.2242 C.3       1 UNK         0.0000 
     37 H37         0.8179   -6.3315   -0.6159 H         1 UNK         0.0000 
     38 C38         0.2463   -8.1880    0.2698 C.2       1 UNK         0.0000 
     39 O39        -0.8154   -8.8035    0.8549 O.3       1 UNK         0.0000 
     40 O40         1.3216   -8.7217    0.1245 O.2       1 UNK         0.0000 
     41 C41        -1.1229   -6.8316   -1.3907 C.3       1 UNK         0.0000 
     42 C42        -1.6958   -5.4780   -1.8665 C.3       1 UNK         0.0000 
     43 C43        -0.6422   -4.4059   -2.2107 C.3       1 UNK         0.0000 
     44 C44        -1.2475   -3.1542   -2.8875 C.3       1 UNK         0.0000 
     45 N45        -0.4618   -1.9356   -2.6524 N.am      1 UNK         0.0000 
     46 O46        -0.9233   -1.2059   -1.6481 O.co2     1 UNK         0.0000 
     47 C47         0.7603   -1.6463   -3.1638 C.2       1 UNK         0.0000 
     48 O48         1.3986   -0.8001   -2.5305 O.co2     1 UNK         0.0000 
     49 C49         1.2158   -2.2145   -4.4029 C.2       1 UNK         0.0000 
     50 C50         2.3107   -1.6914   -5.0017 C.2       1 UNK         0.0000 
     51 C51         2.9144   -2.0959   -6.2747 C.ar      1 UNK         0.0000 
     52 C52         3.9867   -1.3397   -6.7618 C.ar      1 UNK         0.0000 
     53 C53         4.5719   -1.6642   -7.9800 C.ar      1 UNK         0.0000 
     54 C54         4.0836   -2.7465   -8.7081 C.ar      1 UNK         0.0000 
     55 C55         3.0234   -3.5098   -8.2262 C.ar      1 UNK         0.0000 
     56 C56         2.4390   -3.1855   -7.0077 C.ar      1 UNK         0.0000 
     57 H57        -5.4708    3.1821    0.6361 H         1 UNK         0.0000 
     58 H58        -7.1684    4.8393    1.2861 H         1 UNK         0.0000 
     59 H59        -6.4875    7.1570    1.8094 H         1 UNK         0.0000 
     60 H60        -4.1140    7.8281    1.6844 H         1 UNK         0.0000 
     61 H61        -2.4048    6.1815    1.0348 H         1 UNK         0.0000 
     62 H62         1.7415    4.3956   -1.0450 H         1 UNK         0.0000 
     63 H63         1.0256    4.4417    0.5439 H         1 UNK         0.0000 
     64 H64         3.4072    2.7745   -0.3246 H         1 UNK         0.0000 
     65 H65         3.4334    4.0942    0.7900 H         1 UNK         0.0000 
     66 H66         1.7230    1.6659    1.4137 H         1 UNK         0.0000 
     67 H67         2.3428    2.8257    2.5296 H         1 UNK         0.0000 
     68 H68         4.4812    1.2745    1.0758 H         1 UNK         0.0000 
     69 H69         4.3881    1.7397    2.7310 H         1 UNK         0.0000 
     70 H70         2.1583    0.8097    3.6882 H         1 UNK         0.0000 
     71 H71         1.5780   -3.0468    4.0941 H         1 UNK         0.0000 
     72 H72         1.7979   -2.6448    2.4414 H         1 UNK         0.0000 
     73 H73        -0.7829   -1.7958    4.5496 H         1 UNK         0.0000 
     74 H74        -0.1418   -4.9402    3.6729 H         1 UNK         0.0000 
     75 H75        -1.5816   -4.6169    2.7514 H         1 UNK         0.0000 
     76 H76        -1.5599   -6.0643    1.1482 H         1 UNK         0.0000 
     77 H77        -0.6518   -7.3363   -2.2352 H         1 UNK         0.0000 
     78 H78        -1.9641   -7.4647   -1.1044 H         1 UNK         0.0000 
     79 H79        -2.3631   -5.0791   -1.0971 H         1 UNK         0.0000 
     80 H80        -2.3307   -5.6539   -2.7360 H         1 UNK         0.0000 
     81 H81        -0.1287   -4.1127   -1.2913 H         1 UNK         0.0000 
     82 H82         0.1246   -4.8197   -2.8667 H         1 UNK         0.0000 
     83 H83        -1.4490   -3.3215   -3.9461 H         1 UNK         0.0000 
     84 H84        -2.2468   -3.0106   -2.4568 H         1 UNK         0.0000 
     85 H85         4.3679   -0.4948   -6.2020 H         1 UNK         0.0000 
     86 H86         5.3959   -1.0747   -8.3578 H         1 UNK         0.0000 
     87 H87         4.5319   -2.9953   -9.6560 H         1 UNK         0.0000 
     88 H88         2.6518   -4.3491   -8.7963 H         1 UNK         0.0000 
     89 H89         1.6176   -3.7827   -6.6413 H         1 UNK         0.0000 
     90 H90        -0.4825   -9.6610    1.1254 H         1 UNK         0.0000 
     91 H91         2.8250   -0.8680   -4.5206 H         1 UNK         0.0000 
     92 H92         0.6468   -3.0318   -4.8144 H         1 UNK         0.0000 
     93 H93        -3.2741    2.5461    0.3067 H         1 UNK         0.0000 
     94 H94        -1.0485    4.6644    0.1657 H         1 UNK         0.0000 
@<TRIPOS>BOND
     1    1   11 nc   
     2    1   13 nc   
     3    1   21 nc   
     4    1   30 nc   
     5    1   46 nc   
     6    1   48 nc   
     7    2    3 ar   
     8    2    7 ar   
     9    2   57 1    
    10    3   58 1    
    11    3    4 ar   
    12    4   59 1    
    13    4    5 ar   
    14    5   60 1    
    15    5    6 ar   
    16    6    7 ar   
    17    6   61 1    
    18    7    8 1    
    19    8    9 2    
    20    8   93 1    
    21    9   10 1    
    22    9   94 1    
    23   10   11 2    
    24   10   12 am   BACKBONE|DICT|INTERRES
    25   12   14 1    
    26   12   13 1    
    27   14   15 1    
    28   14   63 1    
    29   14   62 1    
    30   15   65 1    
    31   15   16 1    
    32   15   64 1    
    33   16   17 1    
    34   16   67 1    
    35   16   66 1    
    36   17   18 1    
    37   17   69 1    
    38   17   68 1    
    39   18   19 1    
    40   18   23 1    
    41   18   20 1    
    42   20   21 1    
    43   20   22 2    
    44   23   24 am   BACKBONE|DICT|INTERRES
    45   23   70 1    
    46   24   25 2    
    47   24   26 1    
    48   26   71 1    
    49   26   27 1    
    50   26   72 1    
    51   27   28 1    
    52   27   29 1    
    53   27   32 1    
    54   28   73 1    
    55   29   30 1    
    56   29   31 2    
    57   32   75 1    
    58   32   74 1    
    59   32   33 1    
    60   33   34 2    
    61   33   35 am   BACKBONE|DICT|INTERRES
    62   35   76 1    
    63   35   36 1    
    64   36   37 1    
    65   36   38 1    
    66   36   41 1    
    67   38   39 1    
    68   38   40 2    
    69   39   90 1    
    70   41   78 1    
    71   41   42 1    
    72   41   77 1    
    73   42   79 1    
    74   42   43 1    
    75   42   80 1    
    76   43   81 1    
    77   43   44 1    
    78   43   82 1    
    79   44   45 1    
    80   44   84 1    
    81   44   83 1    
    82   45   46 1    
    83   45   47 am   BACKBONE|DICT|INTERRES
    84   47   48 2    
    85   47   49 1    
    86   49   50 2    
    87   49   92 1    
    88   50   51 1    
    89   50   91 1    
    90   51   52 ar   
    91   51   56 ar   
    92   52   85 1    
    93   52   53 ar   
    94   53   54 ar   
    95   53   86 1    
    96   54   55 ar   
    97   54   87 1    
    98   55   56 ar   
    99   55   88 1    
   100   56   89 1    
@<TRIPOS>SUBSTRUCTURE
     1 UNK         1 GROUP             0       ****    0 ROOT    
