@<TRIPOS>MOLECULE
213_c1
132   138    1
SMALL
USER_CHARGES


@<TRIPOS>ATOM
      1 Fe1         0.7879   -0.5743    2.5108 Fe        1 UNK         0.0000 
      2 O2          4.2490   -0.6776    6.5326 O.2       1 UNK         0.0000 
      3 S3          3.6884    0.5007    7.1833 S.3       1 UNK         0.0000 
      4 O4          4.5822    1.3997    7.9361 O.2       1 UNK         0.0000 
      5 O5          2.6595   -0.0541    8.3414 O.3       1 UNK         0.0000 
      6 C6          2.5078    1.5060    6.1977 C.ar      1 UNK         0.0000 
      7 C7          2.2377    2.7737    6.7197 C.ar      1 UNK         0.0000 
      8 C8          1.3293    3.6328    6.1087 C.ar      1 UNK         0.0000 
      9 C9          1.8401    1.1045    5.0205 C.ar      1 UNK         0.0000 
     10 O10         2.1366   -0.0414    4.5583 O.co2     1 UNK         0.0000 
     11 C11         0.8685    1.9558    4.4085 C.ar      1 UNK         0.0000 
     12 O12         0.2185    1.5673    3.3764 O.co2     1 UNK         0.0000 
     13 C13         0.6093    3.2432    4.9606 C.ar      1 UNK         0.0000 
     14 C14        -0.4106    4.2429    4.4055 C.2       1 UNK         0.0000 
     15 O15        -1.5928    3.9889    4.1642 O.2       1 UNK         0.0000 
     16 N16         0.0263    5.5237    4.3714 N.am      1 UNK         0.0000 
     17 C17        -0.8629    6.6934    4.4519 C.3       1 UNK         0.0000 
     18 C18        -1.7437    6.9739    3.2095 C.3       1 UNK         0.0000 
     19 C19        -1.0240    7.5850    1.9930 C.3       1 UNK         0.0000 
     20 C20        -2.0560    8.2494    1.0469 C.3       1 UNK         0.0000 
     21 C21        -1.5623    8.7486   -0.3284 C.3       1 UNK         0.0000 
     22 H22        -2.3782    9.2353   -0.8692 H         1 UNK         0.0000 
     23 N23        -0.5469    9.8813   -0.1185 N.4       1 UNK         0.0000 
     24 H24        -0.2359   10.1399   -1.0503 H         1 UNK         0.0000 
     25 H25         0.2504    9.5213    0.3878 H         1 UNK         0.0000 
     26 H26        -0.9478   10.6748    0.3594 H         1 UNK         0.0000 
     27 C27        -0.8991    7.6899   -1.2421 C.3       1 UNK         0.0000 
     28 H28        -0.0233    7.2976   -0.7173 H         1 UNK         0.0000 
     29 O29        -0.4066    8.3436   -2.4014 O.3       1 UNK         0.0000 
     30 C30        -1.8258    6.5222   -1.6833 C.3       1 UNK         0.0000 
     31 C31        -1.0580    5.3712   -2.3540 C.2       1 UNK         0.0000 
     32 O32         0.1714    5.3853   -2.3114 O.2       1 UNK         0.0000 
     33 N33        -1.7775    4.4654   -3.0411 N.am      1 UNK         0.0000 
     34 C34        -1.2819    3.2087   -3.6472 C.3       1 UNK         0.0000 
     35 H35        -2.0253    2.8362   -4.3515 H         1 UNK         0.0000 
     36 C36         0.0810    3.3797   -4.3646 C.3       1 UNK         0.0000 
     37 C37         0.2213    2.4780   -5.5875 C.2       1 UNK         0.0000 
     38 O38         0.5587    1.3088   -5.4978 O.2       1 UNK         0.0000 
     39 N39        -0.0528    2.9936   -6.7714 N.am      1 UNK         0.0000 
     40 C40        -1.3024    2.0458   -2.6347 C.2       1 UNK         0.0000 
     41 O41        -2.1009    2.1692   -1.7016 O.2       1 UNK         0.0000 
     42 N42        -0.5196    0.9734   -2.9020 N.am      1 UNK         0.0000 
     43 C43        -0.2817   -0.2171   -2.0811 C.3       1 UNK         0.0000 
     44 H44        -1.2538   -0.4566   -1.6615 H         1 UNK         0.0000 
     45 C45         0.6468    0.0790   -0.8373 C.3       1 UNK         0.0000 
     46 H46         1.1553    1.0103   -1.0577 H         1 UNK         0.0000 
     47 O47        -0.1517    0.2147    0.3215 O.co2     1 UNK         0.0000 
     48 C48         1.9810   -0.7071   -0.5709 C.2       1 UNK         0.0000 
     49 O49         2.3415   -0.8074    0.6446 O.co2     1 UNK         0.0000 
     50 O50         2.6463   -1.0932   -1.5672 O.co2     1 UNK         0.0000 
     51 C51        -0.1079   -1.4815   -2.9882 C.2       1 UNK         0.0000 
     52 O52        -0.3685   -1.4190   -4.1988 O.2       1 UNK         0.0000 
     53 N53         0.0939   -2.6531   -2.3771 N.am      1 UNK         0.0000 
     54 C54        -0.6294   -3.8799   -2.7125 C.3       1 UNK         0.0000 
     55 H55        -1.4336   -3.6328   -3.4077 H         1 UNK         0.0000 
     56 C56         0.2376   -4.9647   -3.4097 C.3       1 UNK         0.0000 
     57 C57         1.5376   -5.3641   -2.6764 C.3       1 UNK         0.0000 
     58 C58         2.1883   -6.6323   -3.2786 C.3       1 UNK         0.0000 
     59 C59         3.5879   -6.9782   -2.7315 C.3       1 UNK         0.0000 
     60 N60         3.5626   -7.3757   -1.3199 N.am      1 UNK         0.0000 
     61 C61         3.7847   -6.5291   -0.2983 C.2       1 UNK         0.0000 
     62 O62         4.1998   -5.3897   -0.4839 O.2       1 UNK         0.0000 
     63 C63         3.5078   -7.0753    1.1121 C.3       1 UNK         0.0000 
     64 N64         2.1898   -6.5811    1.5139 N.am      1 UNK         0.0000 
     65 C65         1.9968   -5.5299    2.3128 C.2       1 UNK         0.0000 
     66 O66         2.9301   -5.1353    3.0188 O.2       1 UNK         0.0000 
     67 C67         0.6281   -4.9425    2.3001 C.2       1 UNK         0.0000 
     68 C68         0.4325   -3.6185    2.6571 C.2       1 UNK         0.0000 
     69 O69         1.3577   -2.7485    2.8927 O.co2     1 UNK         0.0000 
     70 C70        -1.0484   -2.9473    2.8239 C.2       1 UNK         0.0000 
     71 O71        -1.0249   -1.6840    2.9812 O.co2     1 UNK         0.0000 
     72 O72        -2.0310   -3.7421    2.8164 O.co2     1 UNK         0.0000 
     73 N73        -0.5012   -5.6519    1.9692 N.am      1 UNK         0.0000 
     74 C74        -0.7758   -6.3301    0.8403 C.2       1 UNK         0.0000 
     75 O75        -0.0651   -7.2261    0.3493 O.2       1 UNK         0.0000 
     76 C76        -2.1042   -6.0355    0.1072 C.3       1 UNK         0.0000 
     77 H77        -2.5752   -5.2101    0.6517 H         1 UNK         0.0000 
     78 N78        -1.7591   -5.5965   -1.2645 N.am      1 UNK         0.0000 
     79 C79        -1.3883   -4.3088   -1.4398 C.2       1 UNK         0.0000 
     80 O80        -1.6652   -3.4487   -0.6153 O.2       1 UNK         0.0000 
     81 C81        -3.1854   -7.1800    0.1078 C.3       1 UNK         0.0000 
     82 C82        -2.7706   -8.6830    0.1975 C.3       1 UNK         0.0000 
     83 C83        -3.7254   -9.5857    1.0197 C.3       1 UNK         0.0000 
     84 C84        -4.6724  -10.4629    0.1816 C.3       1 UNK         0.0000 
     85 N85        -5.5180  -11.3305    1.0358 N.4       1 UNK         0.0000 
     86 H86        -4.9513  -11.9385    1.6125 H         1 UNK         0.0000 
     87 H87        -6.1109  -10.7743    1.6378 H         1 UNK         0.0000 
     88 H88        -6.1080  -11.9086    0.4545 H         1 UNK         0.0000 
     89 H89         2.7285    3.0974    7.6197 H         1 UNK         0.0000 
     90 H90         1.1634    4.5975    6.5591 H         1 UNK         0.0000 
     91 H91         1.0233    5.6122    4.5195 H         1 UNK         0.0000 
     92 H92        -0.2402    7.5645    4.6758 H         1 UNK         0.0000 
     93 H93        -1.5182    6.5857    5.3244 H         1 UNK         0.0000 
     94 H94        -2.5369    7.6446    3.5344 H         1 UNK         0.0000 
     95 H95        -2.2743    6.0706    2.8985 H         1 UNK         0.0000 
     96 H96        -0.2911    8.3164    2.3311 H         1 UNK         0.0000 
     97 H97        -0.4653    6.7936    1.4870 H         1 UNK         0.0000 
     98 H98        -2.8795    7.5530    0.8742 H         1 UNK         0.0000 
     99 H99        -2.5146    9.0879    1.5739 H         1 UNK         0.0000 
    100 H100        0.0205    7.6423   -2.9239 H         1 UNK         0.0000 
    101 H101       -2.6074    6.8774   -2.3597 H         1 UNK         0.0000 
    102 H102       -2.3227    6.1008   -0.8087 H         1 UNK         0.0000 
    103 H103       -2.7773    4.4510   -2.9195 H         1 UNK         0.0000 
    104 H104        0.1666    4.4040   -4.7302 H         1 UNK         0.0000 
    105 H105        0.9157    3.2164   -3.6710 H         1 UNK         0.0000 
    106 H106        0.0544    2.3639   -7.5510 H         1 UNK         0.0000 
    107 H107       -0.2971    3.9613   -6.8942 H         1 UNK         0.0000 
    108 H108       -0.0134    0.8957   -3.7755 H         1 UNK         0.0000 
    109 H109        0.3311   -2.5445   -1.3941 H         1 UNK         0.0000 
    110 H110        0.5031   -4.5892   -4.4020 H         1 UNK         0.0000 
    111 H111       -0.3741   -5.8492   -3.5967 H         1 UNK         0.0000 
    112 H112        2.2392   -4.5265   -2.7297 H         1 UNK         0.0000 
    113 H113        1.3412   -5.5057   -1.6126 H         1 UNK         0.0000 
    114 H114        2.2700   -6.5056   -4.3581 H         1 UNK         0.0000 
    115 H115        1.5327   -7.4871   -3.1254 H         1 UNK         0.0000 
    116 H116        4.0439   -7.7744   -3.3222 H         1 UNK         0.0000 
    117 H117        4.2392   -6.1095   -2.8750 H         1 UNK         0.0000 
    118 H118        3.3254   -8.3280   -1.0932 H         1 UNK         0.0000 
    119 H119        3.5456   -8.1630    1.1411 H         1 UNK         0.0000 
    120 H120        4.3038   -6.7155    1.7657 H         1 UNK         0.0000 
    121 H121        1.3844   -6.8311    0.9419 H         1 UNK         0.0000 
    122 H122       -1.2348   -4.9868    2.2778 H         1 UNK         0.0000 
    123 H123       -1.3964   -6.2715   -1.9177 H         1 UNK         0.0000 
    124 H124       -3.7584   -6.9593    1.0080 H         1 UNK         0.0000 
    125 H125       -3.8900   -7.0210   -0.7108 H         1 UNK         0.0000 
    126 H126       -2.6206   -9.0765   -0.8101 H         1 UNK         0.0000 
    127 H127       -1.8005   -8.7967    0.6736 H         1 UNK         0.0000 
    128 H128       -3.1021  -10.2101    1.6658 H         1 UNK         0.0000 
    129 H129       -4.3043   -8.9639    1.7055 H         1 UNK         0.0000 
    130 H130       -5.3080   -9.8361   -0.4486 H         1 UNK         0.0000 
    131 H131       -4.0866  -11.0935   -0.4927 H         1 UNK         0.0000 
    132 H132        3.1515    0.0376    9.1696 H         1 UNK         0.0000 
@<TRIPOS>BOND
     1    1   10 nc   
     2    1   12 nc   
     3    1   47 nc   
     4    1   49 nc   
     5    1   69 nc   
     6    1   71 nc   
     7    2    3 2    
     8    3    4 2    
     9    3    5 1    
    10    3    6 1    
    11    5  132 1    
    12    6    7 ar   
    13    6    9 ar   
    14    7   89 1    
    15    7    8 ar   
    16    8   90 1    
    17    8   13 ar   
    18    9   10 1    
    19    9   11 ar   
    20   11   13 ar   
    21   11   12 1    
    22   13   14 1    
    23   14   15 2    
    24   14   16 am   BACKBONE|DICT|INTERRES
    25   16   91 1    
    26   16   17 1    
    27   17   92 1    
    28   17   93 1    
    29   17   18 1    
    30   18   94 1    
    31   18   19 1    
    32   18   95 1    
    33   19   96 1    
    34   19   20 1    
    35   19   97 1    
    36   20   99 1    
    37   20   21 1    
    38   20   98 1    
    39   21   22 1    
    40   21   23 1    
    41   21   27 1    
    42   23   25 1    
    43   23   26 1    
    44   23   24 1    
    45   27   28 1    
    46   27   29 1    
    47   27   30 1    
    48   29  100 1    
    49   30  102 1    
    50   30   31 1    
    51   30  101 1    
    52   31   32 2    
    53   31   33 am   BACKBONE|DICT|INTERRES
    54   33  103 1    
    55   33   34 1    
    56   34   35 1    
    57   34   40 1    
    58   34   36 1    
    59   36  105 1    
    60   36   37 1    
    61   36  104 1    
    62   37   38 2    
    63   37   39 am   BACKBONE|DICT|INTERRES
    64   39  106 1    
    65   39  107 1    
    66   40   42 am   BACKBONE|DICT|INTERRES
    67   40   41 2    
    68   42   43 1    
    69   42  108 1    
    70   43   44 1    
    71   43   45 1    
    72   43   51 1    
    73   45   46 1    
    74   45   48 1    
    75   45   47 1    
    76   48   49 1    
    77   48   50 2    
    78   51   53 am   BACKBONE|DICT|INTERRES
    79   51   52 2    
    80   53   54 1    
    81   53  109 1    
    82   54   55 1    
    83   54   79 1    
    84   54   56 1    
    85   56   57 1    
    86   56  110 1    
    87   56  111 1    
    88   57  113 1    
    89   57   58 1    
    90   57  112 1    
    91   58  115 1    
    92   58   59 1    
    93   58  114 1    
    94   59   60 1    
    95   59  116 1    
    96   59  117 1    
    97   60  118 1    
    98   60   61 am   BACKBONE|DICT|INTERRES
    99   61   63 1    
   100   61   62 2    
   101   63  119 1    
   102   63   64 1    
   103   63  120 1    
   104   64   65 am   BACKBONE|DICT|INTERRES
   105   64  121 1    
   106   65   67 1    
   107   65   66 2    
   108   67   68 2    
   109   67   73 1    
   110   68   70 1    
   111   68   69 1    
   112   70   72 2    
   113   70   71 1    
   114   73   74 am   BACKBONE|DICT|INTERRES
   115   73  122 1    
   116   74   75 2    
   117   74   76 1    
   118   76   77 1    
   119   76   81 1    
   120   76   78 1    
   121   78   79 am   BACKBONE|DICT|INTERRES
   122   78  123 1    
   123   79   80 2    
   124   81  124 1    
   125   81   82 1    
   126   81  125 1    
   127   82  127 1    
   128   82   83 1    
   129   82  126 1    
   130   83  129 1    
   131   83  128 1    
   132   83   84 1    
   133   84   85 1    
   134   84  130 1    
   135   84  131 1    
   136   85   86 1    
   137   85   87 1    
   138   85   88 1    
@<TRIPOS>SUBSTRUCTURE
     1 UNK         1 GROUP             0       ****    0 ROOT    
