@<TRIPOS>MOLECULE
067_c1
135   140    1
SMALL
USER_CHARGES


@<TRIPOS>ATOM
      1 Fe1         0.6960   -2.6477   -0.1207 Fe        1 UNK         0.0000 
      2 O2         -4.0360   -4.1852   -7.3217 O.3       1 UNK         0.0000 
      3 C3         -3.5072   -5.3584   -6.7278 C.3       1 UNK         0.0000 
      4 C4         -2.2039   -5.0472   -5.9529 C.3       1 UNK         0.0000 
      5 C5         -2.2444   -3.9506   -4.8522 C.3       1 UNK         0.0000 
      6 O6         -2.6181   -2.7560   -5.4843 O.3       1 UNK         0.0000 
      7 C7         -3.3886   -4.2298   -3.8430 C.3       1 UNK         0.0000 
      8 C8         -0.8291   -3.6888   -4.2443 C.3       1 UNK         0.0000 
      9 C9         -0.8466   -3.2576   -2.7649 C.2       1 UNK         0.0000 
     10 O10        -0.8202   -4.1743   -1.9327 O.co2     1 UNK         0.0000 
     11 N11        -0.9338   -1.9471   -2.3546 N.am      1 UNK         0.0000 
     12 O12        -1.3355   -1.5519   -1.1334 O.co2     1 UNK         0.0000 
     13 C13        -0.5915   -0.7980   -3.2227 C.3       1 UNK         0.0000 
     14 C14         0.3386    0.2650   -2.5561 C.3       1 UNK         0.0000 
     15 C15         0.7089    1.4219   -3.5009 C.3       1 UNK         0.0000 
     16 C16         1.5259    2.6410   -2.9682 C.3       1 UNK         0.0000 
     17 H17         1.7342    3.1403   -3.9167 H         1 UNK         0.0000 
     18 C18         0.7597    3.7561   -2.2289 C.2       1 UNK         0.0000 
     19 O19        -0.2435    3.4967   -1.5753 O.2       1 UNK         0.0000 
     20 N20         1.3132    4.9704   -2.3925 N.am      1 UNK         0.0000 
     21 C21         0.7333    6.3135   -2.2687 C.3       1 UNK         0.0000 
     22 H22         1.5943    6.9737   -2.3835 H         1 UNK         0.0000 
     23 C23        -0.1902    6.6062   -3.4789 C.3       1 UNK         0.0000 
     24 O24        -1.2227    5.6500   -3.6447 O.3       1 UNK         0.0000 
     25 C25         0.0790    6.7021   -0.9298 C.2       1 UNK         0.0000 
     26 O26        -0.9138    6.0978   -0.5261 O.2       1 UNK         0.0000 
     27 N27         0.6078    7.7760   -0.3159 N.am      1 UNK         0.0000 
     28 C28         0.0719    8.5605    0.8075 C.3       1 UNK         0.0000 
     29 H29         0.7998    9.3524    0.9945 H         1 UNK         0.0000 
     30 C30        -1.2514    9.2348    0.3910 C.3       1 UNK         0.0000 
     31 O31        -1.0127   10.1077   -0.7033 O.3       1 UNK         0.0000 
     32 C32        -0.0872    7.8267    2.1504 C.2       1 UNK         0.0000 
     33 O33         0.1318    8.4446    3.1895 O.2       1 UNK         0.0000 
     34 N34        -0.4794    6.5509    2.1196 N.am      1 UNK         0.0000 
     35 C35        -0.6019    5.7029    3.2857 C.3       1 UNK         0.0000 
     36 C36         0.6828    4.8867    3.3713 C.2       1 UNK         0.0000 
     37 O37         1.7400    5.4095    3.7101 O.2       1 UNK         0.0000 
     38 N38         0.5647    3.5843    3.1004 N.am      1 UNK         0.0000 
     39 C39         1.5885    2.5958    3.4191 C.3       1 UNK         0.0000 
     40 H40         2.2044    2.9795    4.2379 H         1 UNK         0.0000 
     41 C41         0.9458    1.2870    3.9520 C.3       1 UNK         0.0000 
     42 C42        -0.3222    0.7993    3.2024 C.3       1 UNK         0.0000 
     43 C43        -0.7679   -0.6344    3.6003 C.3       1 UNK         0.0000 
     44 N44        -0.1060   -1.7826    2.9208 N.am      1 UNK         0.0000 
     45 O45         1.0215   -1.4638    2.2600 O.co2     1 UNK         0.0000 
     46 C46        -0.6498   -3.0492    2.9345 C.2       1 UNK         0.0000 
     47 O47        -0.3351   -3.8960    2.0901 O.co2     1 UNK         0.0000 
     48 C48        -1.6047   -3.4070    3.9717 C.2       1 UNK         0.0000 
     49 C49        -1.7100   -4.6301    4.5584 C.2       1 UNK         0.0000 
     50 C50        -0.7670   -5.8211    4.3213 C.3       1 UNK         0.0000 
     51 C51        -2.8532   -4.8790    5.5481 C.3       1 UNK         0.0000 
     52 C52        -2.6970   -6.0551    6.5275 C.3       1 UNK         0.0000 
     53 O53        -3.8471   -6.1386    7.3533 O.3       1 UNK         0.0000 
     54 C54         2.5897    2.3022    2.2876 C.2       1 UNK         0.0000 
     55 O55         3.7319    1.9944    2.6157 O.2       1 UNK         0.0000 
     56 N56         2.1328    2.3312    1.0224 N.am      1 UNK         0.0000 
     57 C57         2.6726    1.5815   -0.1279 C.3       1 UNK         0.0000 
     58 H58         1.7603    1.2121   -0.5778 H         1 UNK         0.0000 
     59 C59         3.3571    2.4379   -1.2098 C.2       1 UNK         0.0000 
     60 O60         4.4172    2.9974   -0.9496 O.2       1 UNK         0.0000 
     61 N61         2.8978    2.4391   -2.4715 N.am      1 UNK         0.0000 
     62 C62         3.5183    0.3126    0.2278 C.3       1 UNK         0.0000 
     63 C63         4.1632   -0.4788   -0.9350 C.3       1 UNK         0.0000 
     64 C64         4.4507   -1.9752   -0.6265 C.3       1 UNK         0.0000 
     65 N65         3.2831   -2.8978   -0.6235 N.am      1 UNK         0.0000 
     66 O66         2.2992   -2.5024   -1.4408 O.co2     1 UNK         0.0000 
     67 C67         3.3139   -4.1164    0.0229 C.2       1 UNK         0.0000 
     68 O68         2.2996   -4.8115    0.1083 O.co2     1 UNK         0.0000 
     69 C69         4.5581   -4.6109    0.5678 C.2       1 UNK         0.0000 
     70 C70         5.3230   -5.5484   -0.0419 C.2       1 UNK         0.0000 
     71 C71         6.5676   -6.0743    0.6604 C.3       1 UNK         0.0000 
     72 C72         4.9943   -6.1398   -1.4275 C.3       1 UNK         0.0000 
     73 C73         5.9571   -7.1721   -2.0582 C.3       1 UNK         0.0000 
     74 O74         5.8558   -8.4342   -1.4212 O.3       1 UNK         0.0000 
     75 H75        -4.7778   -4.4221   -7.8912 H         1 UNK         0.0000 
     76 H76        -4.2725   -5.7536   -6.0562 H         1 UNK         0.0000 
     77 H77        -3.3251   -6.1138   -7.4958 H         1 UNK         0.0000 
     78 H78        -1.4194   -4.8073   -6.6714 H         1 UNK         0.0000 
     79 H79        -1.8778   -5.9781   -5.4876 H         1 UNK         0.0000 
     80 H80        -3.2511   -3.0174   -6.1763 H         1 UNK         0.0000 
     81 H81        -4.3613   -4.3331   -4.3197 H         1 UNK         0.0000 
     82 H82        -3.1983   -5.1392   -3.2717 H         1 UNK         0.0000 
     83 H83        -3.5068   -3.4173   -3.1237 H         1 UNK         0.0000 
     84 H84        -0.2784   -4.6329   -4.2591 H         1 UNK         0.0000 
     85 H85        -0.2215   -3.0529   -4.8862 H         1 UNK         0.0000 
     86 H86        -0.1272   -1.0979   -4.1619 H         1 UNK         0.0000 
     87 H87        -1.5271   -0.3286   -3.5321 H         1 UNK         0.0000 
     88 H88         1.2590   -0.2128   -2.2289 H         1 UNK         0.0000 
     89 H89        -0.1665    0.6819   -1.6831 H         1 UNK         0.0000 
     90 H90         1.2304    1.0117   -4.3662 H         1 UNK         0.0000 
     91 H91        -0.2282    1.8196   -3.8984 H         1 UNK         0.0000 
     92 H92         2.2115    4.9749   -2.8437 H         1 UNK         0.0000 
     93 H93        -0.6392    7.5970   -3.3799 H         1 UNK         0.0000 
     94 H94         0.3987    6.6281   -4.3964 H         1 UNK         0.0000 
     95 H95        -1.5877    5.4387   -2.7738 H         1 UNK         0.0000 
     96 H96         1.4112    8.2121   -0.7365 H         1 UNK         0.0000 
     97 H97        -1.6602    9.8127    1.2229 H         1 UNK         0.0000 
     98 H98        -2.0099    8.4973    0.1230 H         1 UNK         0.0000 
     99 H99        -1.1585   11.0137   -0.4122 H         1 UNK         0.0000 
    100 H100       -0.6643    6.1445    1.2026 H         1 UNK         0.0000 
    101 H101       -0.7276    6.2804    4.2054 H         1 UNK         0.0000 
    102 H102       -1.4819    5.0675    3.1811 H         1 UNK         0.0000 
    103 H103       -0.3188    3.2233    2.7814 H         1 UNK         0.0000 
    104 H104        1.7022    0.4985    3.9580 H         1 UNK         0.0000 
    105 H105        0.6913    1.4346    5.0027 H         1 UNK         0.0000 
    106 H106       -0.1868    0.8534    2.1229 H         1 UNK         0.0000 
    107 H107       -1.1323    1.4863    3.4390 H         1 UNK         0.0000 
    108 H108       -0.6363   -0.7541    4.6767 H         1 UNK         0.0000 
    109 H109       -1.8494   -0.6804    3.4456 H         1 UNK         0.0000 
    110 H110       -2.3013   -2.6335    4.2559 H         1 UNK         0.0000 
    111 H111        0.0958   -5.5994    3.6964 H         1 UNK         0.0000 
    112 H112       -0.3445   -6.1758    5.2596 H         1 UNK         0.0000 
    113 H113       -1.3009   -6.6453    3.8493 H         1 UNK         0.0000 
    114 H114       -3.0350   -3.9675    6.1172 H         1 UNK         0.0000 
    115 H115       -3.7516   -5.0451    4.9544 H         1 UNK         0.0000 
    116 H116       -2.5793   -6.9929    5.9796 H         1 UNK         0.0000 
    117 H117       -1.8028   -5.9259    7.1411 H         1 UNK         0.0000 
    118 H118       -3.7857   -6.9071    7.9293 H         1 UNK         0.0000 
    119 H119        1.2436    2.7771    0.8583 H         1 UNK         0.0000 
    120 H120        3.5932    2.7520   -3.1308 H         1 UNK         0.0000 
    121 H121        2.9063   -0.3461    0.8393 H         1 UNK         0.0000 
    122 H122        4.3614    0.5921    0.8584 H         1 UNK         0.0000 
    123 H123        5.1188   -0.0021   -1.1601 H         1 UNK         0.0000 
    124 H124        3.5911   -0.3873   -1.8572 H         1 UNK         0.0000 
    125 H125        4.9933   -2.0274    0.3227 H         1 UNK         0.0000 
    126 H126        5.1511   -2.3487   -1.3721 H         1 UNK         0.0000 
    127 H127        4.8327   -4.1996    1.5304 H         1 UNK         0.0000 
    128 H128        6.4882   -7.1510    0.8153 H         1 UNK         0.0000 
    129 H129        7.4633   -5.8599    0.0814 H         1 UNK         0.0000 
    130 H130        6.6963   -5.6235    1.6448 H         1 UNK         0.0000 
    131 H131        3.9939   -6.5740   -1.3918 H         1 UNK         0.0000 
    132 H132        4.9186   -5.2987   -2.1174 H         1 UNK         0.0000 
    133 H133        6.9891   -6.8178   -2.0316 H         1 UNK         0.0000 
    134 H134        5.7076   -7.3058   -3.1135 H         1 UNK         0.0000 
    135 H135        6.4537   -9.0612   -1.8423 H         1 UNK         0.0000 
@<TRIPOS>BOND
     1    1   10 nc   
     2    1   12 nc   
     3    1   45 nc   
     4    1   47 nc   
     5    1   66 nc   
     6    1   68 nc   
     7    2    3 1    
     8    2   75 1    
     9    3   76 1    
    10    3    4 1    
    11    3   77 1    
    12    4   79 1    
    13    4    5 1    
    14    4   78 1    
    15    5    6 1    
    16    5    8 1    
    17    5    7 1    
    18    6   80 1    
    19    7   82 1    
    20    7   83 1    
    21    7   81 1    
    22    8   84 1    
    23    8    9 1    
    24    8   85 1    
    25    9   11 am   BACKBONE|DICT|INTERRES
    26    9   10 2    
    27   11   12 1    
    28   11   13 1    
    29   13   14 1    
    30   13   86 1    
    31   13   87 1    
    32   14   88 1    
    33   14   89 1    
    34   14   15 1    
    35   15   16 1    
    36   15   90 1    
    37   15   91 1    
    38   16   17 1    
    39   16   61 1    
    40   16   18 1    
    41   18   19 2    
    42   18   20 am   BACKBONE|DICT|INTERRES
    43   20   21 1    
    44   20   92 1    
    45   21   22 1    
    46   21   25 1    
    47   21   23 1    
    48   23   93 1    
    49   23   24 1    
    50   23   94 1    
    51   24   95 1    
    52   25   26 2    
    53   25   27 am   BACKBONE|DICT|INTERRES
    54   27   28 1    
    55   27   96 1    
    56   28   29 1    
    57   28   32 1    
    58   28   30 1    
    59   30   97 1    
    60   30   31 1    
    61   30   98 1    
    62   31   99 1    
    63   32   34 am   BACKBONE|DICT|INTERRES
    64   32   33 2    
    65   34   35 1    
    66   34  100 1    
    67   35   36 1    
    68   35  102 1    
    69   35  101 1    
    70   36   37 2    
    71   36   38 am   BACKBONE|DICT|INTERRES
    72   38   39 1    
    73   38  103 1    
    74   39   41 1    
    75   39   40 1    
    76   39   54 1    
    77   41  104 1    
    78   41  105 1    
    79   41   42 1    
    80   42   43 1    
    81   42  106 1    
    82   42  107 1    
    83   43  109 1    
    84   43  108 1    
    85   43   44 1    
    86   44   46 am   BACKBONE|DICT|INTERRES
    87   44   45 1    
    88   46   48 1    
    89   46   47 2    
    90   48  110 1    
    91   48   49 2    
    92   49   51 1    
    93   49   50 1    
    94   50  112 1    
    95   50  111 1    
    96   50  113 1    
    97   51  114 1    
    98   51   52 1    
    99   51  115 1    
   100   52  117 1    
   101   52   53 1    
   102   52  116 1    
   103   53  118 1    
   104   54   55 2    
   105   54   56 am   BACKBONE|DICT|INTERRES
   106   56   57 1    
   107   56  119 1    
   108   57   58 1    
   109   57   62 1    
   110   57   59 1    
   111   59   60 2    
   112   59   61 am   BACKBONE|DICT|INTERRES
   113   61  120 1    
   114   62  122 1    
   115   62  121 1    
   116   62   63 1    
   117   63   64 1    
   118   63  123 1    
   119   63  124 1    
   120   64  125 1    
   121   64   65 1    
   122   64  126 1    
   123   65   67 am   BACKBONE|DICT|INTERRES
   124   65   66 1    
   125   67   68 2    
   126   67   69 1    
   127   69  127 1    
   128   69   70 2    
   129   70   71 1    
   130   70   72 1    
   131   71  128 1    
   132   71  130 1    
   133   71  129 1    
   134   72   73 1    
   135   72  131 1    
   136   72  132 1    
   137   73  133 1    
   138   73   74 1    
   139   73  134 1    
   140   74  135 1    
@<TRIPOS>SUBSTRUCTURE
     1 UNK         1 GROUP             0       ****    0 ROOT    
