@<TRIPOS>MOLECULE
077_c1
95   100    1
SMALL
USER_CHARGES


@<TRIPOS>ATOM
      1 Fe1         0.0006    0.0516    0.0511 Fe        1 UNK         0.0000 
      2 O2          1.4594    6.1325   -0.1514 O.3       1 UNK         0.0000 
      3 C3          0.4059    5.5439   -0.9008 C.3       1 UNK         0.0000 
      4 C4          0.5681    4.0020   -1.0520 C.3       1 UNK         0.0000 
      5 H5         -0.1918    3.6232   -1.7399 H         1 UNK         0.0000 
      6 C6          0.3266    3.2954    0.3235 C.2       1 UNK         0.0000 
      7 O7         -0.2659    2.1730    0.2549 O.co2     1 UNK         0.0000 
      8 O8          0.9077    3.8839    1.2726 O.co2     1 UNK         0.0000 
      9 N9          1.9087    3.5789   -1.4839 N.am      1 UNK         0.0000 
     10 C10         2.3736    3.5795   -2.7403 C.2       1 UNK         0.0000 
     11 O11         1.8513    4.2123   -3.6643 O.2       1 UNK         0.0000 
     12 C12         3.6322    2.7265   -3.0264 C.3       1 UNK         0.0000 
     13 H13         3.4797    2.3324   -4.0437 H         1 UNK         0.0000 
     14 C14         4.9599    3.5324   -3.0524 C.3       1 UNK         0.0000 
     15 C15         5.2703    4.3795   -1.8009 C.3       1 UNK         0.0000 
     16 C16         6.5550    5.2103   -1.9239 C.3       1 UNK         0.0000 
     17 C17         6.4973    6.2779   -3.0278 C.3       1 UNK         0.0000 
     18 N18         7.7375    7.0747   -3.0754 N.4       1 UNK         0.0000 
     19 H19         7.6646    7.7539   -3.8220 H         1 UNK         0.0000 
     20 H20         7.8706    7.5550   -2.1948 H         1 UNK         0.0000 
     21 H21         8.5274    6.4656   -3.2487 H         1 UNK         0.0000 
     22 N22         3.7026    1.5356   -2.1730 N.am      1 UNK         0.0000 
     23 C23         4.2136    0.3633   -2.5256 C.2       1 UNK         0.0000 
     24 O24         5.1481    0.2700   -3.3244 O.2       1 UNK         0.0000 
     25 C25         3.3956   -0.8270   -2.0471 C.ar      1 UNK         0.0000 
     26 C26         2.4025   -0.7830   -1.0224 C.ar      1 UNK         0.0000 
     27 O27         2.1809    0.2967   -0.3249 O.co2     1 UNK         0.0000 
     28 C28         1.6097   -1.9332   -0.8017 C.ar      1 UNK         0.0000 
     29 O29         0.6519   -1.9643    0.0411 O.co2     1 UNK         0.0000 
     30 C30         1.7868   -3.0879   -1.5735 C.ar      1 UNK         0.0000 
     31 C31         2.7587   -3.1216   -2.5649 C.ar      1 UNK         0.0000 
     32 C32         3.5580   -2.0125   -2.7870 C.ar      1 UNK         0.0000 
     33 H33         1.4668    5.5603    0.6521 H         1 UNK         0.0000 
     34 H34         0.2842    6.0277   -1.8778 H         1 UNK         0.0000 
     35 H35        -0.5061    5.7684   -0.3353 H         1 UNK         0.0000 
     36 H36         2.4495    3.1177   -0.7554 H         1 UNK         0.0000 
     37 H37         5.7831    2.8409   -3.2388 H         1 UNK         0.0000 
     38 H38         4.8964    4.1762   -3.9352 H         1 UNK         0.0000 
     39 H39         5.3546    3.7156   -0.9352 H         1 UNK         0.0000 
     40 H40         4.4353    5.0479   -1.5726 H         1 UNK         0.0000 
     41 H41         6.7403    5.6959   -0.9594 H         1 UNK         0.0000 
     42 H42         7.4011    4.5339   -2.0942 H         1 UNK         0.0000 
     43 H43         5.6517    6.9444   -2.8620 H         1 UNK         0.0000 
     44 H44         6.3607    5.8178   -4.0070 H         1 UNK         0.0000 
     45 H45         2.9651    1.3687   -1.4754 H         1 UNK         0.0000 
     46 H46         1.1369   -3.9359   -1.4305 H         1 UNK         0.0000 
     47 H47         2.8658   -3.9999   -3.1815 H         1 UNK         0.0000 
     48 H48         4.2790   -2.0630   -3.5878 H         1 UNK         0.0000 
     49 O49        -1.4583   -0.1569    6.1307 O.3       1 UNK         0.0000 
     50 C50        -0.4050   -0.9063    5.5419 C.3       1 UNK         0.0000 
     51 C51        -0.5667   -1.0551    4.0001 C.3       1 UNK         0.0000 
     52 H52         0.1938   -1.7423    3.6201 H         1 UNK         0.0000 
     53 C53        -0.3249    0.3220    3.2957 C.2       1 UNK         0.0000 
     54 O54         0.2661    0.2559    2.1726 O.co2     1 UNK         0.0000 
     55 O55        -0.9063    1.2699    3.8855 O.co2     1 UNK         0.0000 
     56 N56        -1.9070   -1.4867    3.5754 N.am      1 UNK         0.0000 
     57 C57        -2.3721   -2.7431    3.5750 C.2       1 UNK         0.0000 
     58 O58        -1.8489   -3.6674    4.2067 O.2       1 UNK         0.0000 
     59 C59        -3.6313   -3.0282    2.7231 C.3       1 UNK         0.0000 
     60 H60        -3.4786   -4.0446    2.3272 H         1 UNK         0.0000 
     61 C61        -4.9580   -3.0564    3.5304 C.3       1 UNK         0.0000 
     62 C62        -5.2686   -1.8065    4.3797 C.3       1 UNK         0.0000 
     63 C63        -6.5527   -1.9313    5.2112 C.3       1 UNK         0.0000 
     64 C64        -6.4949   -3.0371    6.2769 C.3       1 UNK         0.0000 
     65 N65        -7.7349   -3.0862    7.0737 N.4       1 UNK         0.0000 
     66 H66        -7.6614   -3.8338    7.7517 H         1 UNK         0.0000 
     67 H67        -7.8678   -2.2063    7.5553 H         1 UNK         0.0000 
     68 H68        -8.5249   -3.2587    6.4644 H         1 UNK         0.0000 
     69 N69        -3.7037   -2.1725    1.5338 N.am      1 UNK         0.0000 
     70 C70        -4.2141   -2.5247    0.3615 C.2       1 UNK         0.0000 
     71 O71        -5.1491   -3.3231    0.2675 O.2       1 UNK         0.0000 
     72 C72        -3.3950   -2.0467   -0.8285 C.ar      1 UNK         0.0000 
     73 C73        -2.4017   -1.0219   -0.7838 C.ar      1 UNK         0.0000 
     74 O74        -2.1797   -0.3247    0.2960 O.co2     1 UNK         0.0000 
     75 C75        -1.6084   -0.8019   -1.9336 C.ar      1 UNK         0.0000 
     76 O76        -0.6504    0.0407   -1.9643 O.co2     1 UNK         0.0000 
     77 C77        -1.7844   -1.5743   -3.0882 C.ar      1 UNK         0.0000 
     78 C78        -2.7561   -2.5662   -3.1220 C.ar      1 UNK         0.0000 
     79 C79        -3.5560   -2.7878   -2.0132 C.ar      1 UNK         0.0000 
     80 H80        -1.4648    0.6472    5.5592 H         1 UNK         0.0000 
     81 H81        -0.2849   -1.8839    6.0246 H         1 UNK         0.0000 
     82 H82         0.5071   -0.3420    5.7682 H         1 UNK         0.0000 
     83 H83        -2.4481   -0.7573    3.1165 H         1 UNK         0.0000 
     84 H84        -5.7818   -3.2424    2.8396 H         1 UNK         0.0000 
     85 H85        -4.8934   -3.9401    4.1730 H         1 UNK         0.0000 
     86 H86        -5.3537   -0.9397    3.7173 H         1 UNK         0.0000 
     87 H87        -4.4332   -1.5787    5.0479 H         1 UNK         0.0000 
     88 H88        -6.7382   -0.9675    5.6983 H         1 UNK         0.0000 
     89 H89        -7.3990   -2.1005    4.5349 H         1 UNK         0.0000 
     90 H90        -5.6501   -2.8733    6.9450 H         1 UNK         0.0000 
     91 H91        -6.3581   -4.0155    5.8148 H         1 UNK         0.0000 
     92 H92        -2.9658   -1.4751    1.3674 H         1 UNK         0.0000 
     93 H93        -1.1338   -1.4322   -3.9358 H         1 UNK         0.0000 
     94 H94        -2.8622   -3.1836   -4.0000 H         1 UNK         0.0000 
     95 H95        -4.2768   -3.5891   -2.0639 H         1 UNK         0.0000 
@<TRIPOS>BOND
     1    1    7 nc   
     2    1   27 nc   
     3    1   29 nc   
     4    1   54 nc   
     5    1   74 nc   
     6    1   76 nc   
     7    2   33 1    
     8    2    3 1    
     9    3   35 1    
    10    3    4 1    
    11    3   34 1    
    12    4    5 1    
    13    4    6 1    
    14    4    9 1    
    15    6    8 2    
    16    6    7 1    
    17    9   36 1    
    18    9   10 am   BACKBONE|DICT|INTERRES
    19   10   11 2    
    20   10   12 1    
    21   12   13 1    
    22   12   22 1    
    23   12   14 1    
    24   14   15 1    
    25   14   37 1    
    26   14   38 1    
    27   15   40 1    
    28   15   39 1    
    29   15   16 1    
    30   16   41 1    
    31   16   17 1    
    32   16   42 1    
    33   17   43 1    
    34   17   18 1    
    35   17   44 1    
    36   18   20 1    
    37   18   19 1    
    38   18   21 1    
    39   22   45 1    
    40   22   23 am   BACKBONE|DICT|INTERRES
    41   23   25 1    
    42   23   24 2    
    43   25   26 ar   
    44   25   32 ar   
    45   26   28 ar   
    46   26   27 1    
    47   28   29 1    
    48   28   30 ar   
    49   30   46 1    
    50   30   31 ar   
    51   31   32 ar   
    52   31   47 1    
    53   32   48 1    
    54   49   80 1    
    55   49   50 1    
    56   50   82 1    
    57   50   81 1    
    58   50   51 1    
    59   51   52 1    
    60   51   53 1    
    61   51   56 1    
    62   53   55 2    
    63   53   54 1    
    64   56   83 1    
    65   56   57 am   BACKBONE|DICT|INTERRES
    66   57   58 2    
    67   57   59 1    
    68   59   60 1    
    69   59   61 1    
    70   59   69 1    
    71   61   85 1    
    72   61   62 1    
    73   61   84 1    
    74   62   87 1    
    75   62   63 1    
    76   62   86 1    
    77   63   88 1    
    78   63   64 1    
    79   63   89 1    
    80   64   90 1    
    81   64   65 1    
    82   64   91 1    
    83   65   67 1    
    84   65   66 1    
    85   65   68 1    
    86   69   92 1    
    87   69   70 am   BACKBONE|DICT|INTERRES
    88   70   71 2    
    89   70   72 1    
    90   72   73 ar   
    91   72   79 ar   
    92   73   74 1    
    93   73   75 ar   
    94   75   76 1    
    95   75   77 ar   
    96   77   78 ar   
    97   77   93 1    
    98   78   79 ar   
    99   78   94 1    
   100   79   95 1    
@<TRIPOS>SUBSTRUCTURE
     1 UNK         1 GROUP             0       ****    0 ROOT    
