@<TRIPOS>MOLECULE
102_c1
66   70    1
SMALL
USER_CHARGES


@<TRIPOS>ATOM
      1 Fe1        -0.5048   -0.9013    0.6180 Fe        1 UNK         0.0000 
      2 O2          1.1055   -0.5355    1.9020 O.co2     1 UNK         0.0000 
      3 C3          1.4014    0.6500    1.8240 C.2       1 UNK         0.0000 
      4 C4          2.8621    1.0747    1.8278 C.3       1 UNK         0.0000 
      5 N5          0.3441    1.4419    1.5702 N.am      1 UNK         0.0000 
      6 O6         -0.8776    0.9164    1.5119 O.co2     1 UNK         0.0000 
      7 C7          0.4054    2.8854    1.3004 C.3       1 UNK         0.0000 
      8 C8          0.8779    3.2006   -0.1393 C.3       1 UNK         0.0000 
      9 C9         -0.1393    2.8707   -1.2720 C.3       1 UNK         0.0000 
     10 C10         0.4314    3.2220   -2.6704 C.3       1 UNK         0.0000 
     11 C11        -0.5860    3.1025   -3.8332 C.3       1 UNK         0.0000 
     12 N12        -1.1366    1.7561   -4.0407 N.am      1 UNK         0.0000 
     13 C13        -0.4249    0.6993   -4.4657 C.2       1 UNK         0.0000 
     14 O14         0.7771    0.7586   -4.6873 O.2       1 UNK         0.0000 
     15 C15        -1.1738   -0.6389   -4.6426 C.3       1 UNK         0.0000 
     16 C16        -1.9189   -1.1791   -3.3910 C.3       1 UNK         0.0000 
     17 C17        -1.0612   -1.1477   -2.1372 C.2       1 UNK         0.0000 
     18 O18        -1.3692   -0.4189   -1.2055 O.co2     1 UNK         0.0000 
     19 N19         0.0896   -1.8470   -1.9471 N.am      1 UNK         0.0000 
     20 O20         0.7799   -1.6079   -0.8395 O.co2     1 UNK         0.0000 
     21 C21         0.5068   -3.0589   -2.6753 C.3       1 UNK         0.0000 
     22 C22         0.7065   -4.3182   -1.7712 C.3       1 UNK         0.0000 
     23 C23        -0.5711   -4.7697   -1.0139 C.3       1 UNK         0.0000 
     24 C24        -0.2937   -5.8191    0.1021 C.3       1 UNK         0.0000 
     25 C25         0.5222   -5.3691    1.3477 C.3       1 UNK         0.0000 
     26 N26        -0.2602   -4.6402    2.3699 N.am      1 UNK         0.0000 
     27 C27        -0.6360   -3.3598    2.2898 C.2       1 UNK         0.0000 
     28 O28        -0.2922   -2.6033    1.3606 O.co2     1 UNK         0.0000 
     29 C29        -1.5298   -2.7375    3.3551 C.3       1 UNK         0.0000 
     30 C30        -3.0424   -2.5676    2.9521 C.3       1 UNK         0.0000 
     31 C31        -3.3591   -1.7513    1.6973 C.2       1 UNK         0.0000 
     32 O32        -4.5580   -1.6220    1.4120 O.co2     1 UNK         0.0000 
     33 O33        -2.3884   -1.3178    1.0129 O.co2     1 UNK         0.0000 
     34 H34         3.3389    0.5005    1.0308 H         1 UNK         0.0000 
     35 H35         3.0032    2.1349    1.6188 H         1 UNK         0.0000 
     36 H36         3.3444    0.7964    2.7673 H         1 UNK         0.0000 
     37 H37         1.0010    3.4153    2.0478 H         1 UNK         0.0000 
     38 H38        -0.6045    3.2989    1.4103 H         1 UNK         0.0000 
     39 H39         1.0781    4.2759   -0.1738 H         1 UNK         0.0000 
     40 H40         1.8348    2.7022   -0.3457 H         1 UNK         0.0000 
     41 H41        -0.3762    1.8103   -1.2425 H         1 UNK         0.0000 
     42 H42        -1.0814    3.4066   -1.0995 H         1 UNK         0.0000 
     43 H43         1.3023    2.5929   -2.8757 H         1 UNK         0.0000 
     44 H44         0.8207    4.2424   -2.6574 H         1 UNK         0.0000 
     45 H45        -1.4403    3.7559   -3.6247 H         1 UNK         0.0000 
     46 H46        -0.1315    3.4577   -4.7634 H         1 UNK         0.0000 
     47 H47        -2.1151    1.6205   -3.8447 H         1 UNK         0.0000 
     48 H48        -0.4817   -1.4080   -4.9868 H         1 UNK         0.0000 
     49 H49        -1.8811   -0.5414   -5.4647 H         1 UNK         0.0000 
     50 H50        -2.8346   -0.6025   -3.2247 H         1 UNK         0.0000 
     51 H51        -2.3196   -2.1839   -3.5168 H         1 UNK         0.0000 
     52 H52        -0.2288   -3.3074   -3.4345 H         1 UNK         0.0000 
     53 H53         1.4353   -2.8445   -3.2126 H         1 UNK         0.0000 
     54 H54         1.5211   -4.1196   -1.0701 H         1 UNK         0.0000 
     55 H55         1.0732   -5.1518   -2.3791 H         1 UNK         0.0000 
     56 H56        -1.0963   -3.9078   -0.6101 H         1 UNK         0.0000 
     57 H57        -1.2787   -5.1974   -1.7398 H         1 UNK         0.0000 
     58 H58        -1.2580   -6.2301    0.4195 H         1 UNK         0.0000 
     59 H59         0.2359   -6.6532   -0.3684 H         1 UNK         0.0000 
     60 H60         1.3652   -4.7612    1.0363 H         1 UNK         0.0000 
     61 H61         0.9791   -6.2457    1.8134 H         1 UNK         0.0000 
     62 H62        -0.5173   -5.1687    3.1982 H         1 UNK         0.0000 
     63 H63        -1.4489   -3.3261    4.2622 H         1 UNK         0.0000 
     64 H64        -1.0997   -1.7730    3.6345 H         1 UNK         0.0000 
     65 H65        -3.5115   -3.5406    2.7861 H         1 UNK         0.0000 
     66 H66        -3.5913   -2.0775    3.7639 H         1 UNK         0.0000 
@<TRIPOS>BOND
     1    1    2 nc   
     2    1    6 nc   
     3    1   18 nc   
     4    1   20 nc   
     5    1   28 nc   
     6    1   33 nc   
     7    2    3 2    
     8    3    4 1    
     9    3    5 am   BACKBONE|DICT|INTERRES
    10    4   36 1    
    11    4   34 1    
    12    4   35 1    
    13    5    6 1    
    14    5    7 1    
    15    7   38 1    
    16    7   37 1    
    17    7    8 1    
    18    8    9 1    
    19    8   39 1    
    20    8   40 1    
    21    9   41 1    
    22    9   42 1    
    23    9   10 1    
    24   10   44 1    
    25   10   11 1    
    26   10   43 1    
    27   11   45 1    
    28   11   12 1    
    29   11   46 1    
    30   12   47 1    
    31   12   13 am   BACKBONE|DICT|INTERRES
    32   13   14 2    
    33   13   15 1    
    34   15   16 1    
    35   15   48 1    
    36   15   49 1    
    37   16   50 1    
    38   16   17 1    
    39   16   51 1    
    40   17   19 am   BACKBONE|DICT|INTERRES
    41   17   18 2    
    42   19   20 1    
    43   19   21 1    
    44   21   22 1    
    45   21   52 1    
    46   21   53 1    
    47   22   54 1    
    48   22   23 1    
    49   22   55 1    
    50   23   56 1    
    51   23   24 1    
    52   23   57 1    
    53   24   58 1    
    54   24   25 1    
    55   24   59 1    
    56   25   61 1    
    57   25   26 1    
    58   25   60 1    
    59   26   62 1    
    60   26   27 am   BACKBONE|DICT|INTERRES
    61   27   28 2    
    62   27   29 1    
    63   29   64 1    
    64   29   63 1    
    65   29   30 1    
    66   30   66 1    
    67   30   31 1    
    68   30   65 1    
    69   31   32 2    
    70   31   33 1    
@<TRIPOS>SUBSTRUCTURE
     1 UNK         1 GROUP             0       ****    0 ROOT    
