@<TRIPOS>MOLECULE
258_c1
85   94    1
SMALL
USER_CHARGES


@<TRIPOS>ATOM
      1 Fe1         0.9240    2.4209    2.1472 Fe        1 UNK         0.0000 
      2 C2         -4.2641    2.7053    3.4688 C.ar      1 UNK         0.0000 
      3 C3         -3.8253    3.7675    4.2550 C.ar      1 UNK         0.0000 
      4 C4         -2.4651    4.0289    4.3588 C.ar      1 UNK         0.0000 
      5 C5         -1.5724    3.2324    3.6607 C.ar      1 UNK         0.0000 
      6 O6         -0.3457    3.5135    3.6830 O.co2     1 UNK         0.0000 
      7 C7         -1.9991    2.1708    2.8476 C.ar      1 UNK         0.0000 
      8 O8         -1.0801    1.6121    2.1705 O.co2     1 UNK         0.0000 
      9 C9         -3.3867    1.8754    2.7594 C.ar      1 UNK         0.0000 
     10 C10        -4.0247    0.7623    1.9369 C.2       1 UNK         0.0000 
     11 O11        -5.2370    0.8287    1.6494 O.2       1 UNK         0.0000 
     12 N12        -3.3409   -0.3636    1.6608 N.am      1 UNK         0.0000 
     13 C13        -4.0739   -1.5708    1.2175 C.3       1 UNK         0.0000 
     14 C14        -3.3042   -2.8609    0.8846 C.3       1 UNK         0.0000 
     15 C15        -2.8446   -2.9801   -0.5848 C.3       1 UNK         0.0000 
     16 N16        -1.4078   -2.7826   -0.7925 N.am      1 UNK         0.0000 
     17 C17        -0.4940   -3.7113   -0.3822 C.2       1 UNK         0.0000 
     18 O18        -0.8656   -4.8243    0.0170 O.2       1 UNK         0.0000 
     19 C19         1.0334   -3.3973   -0.4620 C.3       1 UNK         0.0000 
     20 H20         1.2549   -3.2061   -1.5115 H         1 UNK         0.0000 
     21 N21         1.3308   -2.2012    0.2544 N.2       1 UNK         0.0000 
     22 C22         2.1501   -2.4614    1.1918 C.2       1 UNK         0.0000 
     23 O23         2.5362   -3.7784    1.2232 O.3       1 UNK         0.0000 
     24 C24         1.9561   -4.4684    0.1399 C.3       1 UNK         0.0000 
     25 H25         1.4411   -5.3525    0.5235 H         1 UNK         0.0000 
     26 C26         3.0977   -4.8999   -0.7978 C.3       1 UNK         0.0000 
     27 C27         2.7087   -1.5639    2.2340 C.ar      1 UNK         0.0000 
     28 C28         2.4177   -0.1799    2.3165 C.ar      1 UNK         0.0000 
     29 O29         1.7016    0.4391    1.4658 O.co2     1 UNK         0.0000 
     30 C30         2.8834    0.5685    3.3989 C.ar      1 UNK         0.0000 
     31 O31         2.4976    1.7583    3.5180 O.co2     1 UNK         0.0000 
     32 C32         3.6874   -0.0038    4.3756 C.ar      1 UNK         0.0000 
     33 C33         4.0062   -1.3547    4.2919 C.ar      1 UNK         0.0000 
     34 C34         3.5172   -2.1284    3.2381 C.ar      1 UNK         0.0000 
     35 C35        -1.0762   -1.6040   -1.6150 C.3       1 UNK         0.0000 
     36 C36        -1.4551   -1.8260   -3.0975 C.3       1 UNK         0.0000 
     37 C37        -0.5984   -1.0415   -4.0966 C.3       1 UNK         0.0000 
     38 N38        -0.5468    0.3894   -3.8236 N.am      1 UNK         0.0000 
     39 C39        -0.0258    1.2983   -4.6612 C.2       1 UNK         0.0000 
     40 O40         0.4257    0.9810   -5.7684 O.2       1 UNK         0.0000 
     41 C41        -0.0782    2.7799   -4.2177 C.3       1 UNK         0.0000 
     42 H42        -1.1092    3.0844   -4.3804 H         1 UNK         0.0000 
     43 N43         0.1598    2.9475   -2.8102 N.2       1 UNK         0.0000 
     44 C44         1.0528    3.8479   -2.6754 C.2       1 UNK         0.0000 
     45 O45         1.5047    4.3615   -3.8697 O.3       1 UNK         0.0000 
     46 C46         0.9174    3.6806   -4.9498 C.3       1 UNK         0.0000 
     47 H47         1.7091    3.1346   -5.4743 H         1 UNK         0.0000 
     48 C48         0.2593    4.7087   -5.8840 C.3       1 UNK         0.0000 
     49 C49         1.6290    4.4567   -1.4518 C.ar      1 UNK         0.0000 
     50 C50         1.4586    3.9521   -0.1415 C.ar      1 UNK         0.0000 
     51 O51         0.9027    2.8529    0.2023 O.co2     1 UNK         0.0000 
     52 C52         1.9877    4.6463    0.9510 C.ar      1 UNK         0.0000 
     53 O53         1.7822    4.1064    2.0704 O.co2     1 UNK         0.0000 
     54 C54         2.7024    5.8209    0.8004 C.ar      1 UNK         0.0000 
     55 C55         2.9351    6.2999   -0.4877 C.ar      1 UNK         0.0000 
     56 C56         2.4006    5.6311   -1.5977 C.ar      1 UNK         0.0000 
     57 H57        -5.3277    2.5351    3.3932 H         1 UNK         0.0000 
     58 H58        -4.5424    4.3905    4.7700 H         1 UNK         0.0000 
     59 H59        -2.1002    4.8700    4.9255 H         1 UNK         0.0000 
     60 H60        -2.3274   -0.2843    1.7845 H         1 UNK         0.0000 
     61 H61        -4.7986   -1.8216    1.9988 H         1 UNK         0.0000 
     62 H62        -4.6986   -1.3111    0.3596 H         1 UNK         0.0000 
     63 H63        -3.9952   -3.6921    1.0532 H         1 UNK         0.0000 
     64 H64        -2.4977   -3.0094    1.5994 H         1 UNK         0.0000 
     65 H65        -3.4219   -2.3029   -1.2190 H         1 UNK         0.0000 
     66 H66        -3.0868   -3.9803   -0.9516 H         1 UNK         0.0000 
     67 H67         3.7918   -5.5681   -0.2890 H         1 UNK         0.0000 
     68 H68         2.7120   -5.4205   -1.6759 H         1 UNK         0.0000 
     69 H69         3.6612   -4.0332   -1.1408 H         1 UNK         0.0000 
     70 H70         4.0083    0.6077    5.2024 H         1 UNK         0.0000 
     71 H71         4.5948   -1.8019    5.0735 H         1 UNK         0.0000 
     72 H72         3.7458   -3.1825    3.2328 H         1 UNK         0.0000 
     73 H73        -0.0152   -1.3642   -1.5613 H         1 UNK         0.0000 
     74 H74        -1.5719   -0.7105   -1.2218 H         1 UNK         0.0000 
     75 H75        -2.5036   -1.5745   -3.2482 H         1 UNK         0.0000 
     76 H76        -1.3771   -2.8872   -3.3482 H         1 UNK         0.0000 
     77 H77         0.4261   -1.4135   -4.0545 H         1 UNK         0.0000 
     78 H78        -0.9711   -1.2093   -5.1101 H         1 UNK         0.0000 
     79 H79        -0.7161    0.7264   -2.8747 H         1 UNK         0.0000 
     80 H80         0.9952    5.3962   -6.3019 H         1 UNK         0.0000 
     81 H81        -0.2378    4.2051   -6.7162 H         1 UNK         0.0000 
     82 H82        -0.4861    5.2965   -5.3504 H         1 UNK         0.0000 
     83 H83         3.1034    6.2980    1.6731 H         1 UNK         0.0000 
     84 H84         3.5320    7.1884   -0.6177 H         1 UNK         0.0000 
     85 H85         2.5850    6.0595   -2.5718 H         1 UNK         0.0000 
@<TRIPOS>BOND
     1    1    6 nc   
     2    1    8 nc   
     3    1   29 nc   
     4    1   31 nc   
     5    1   51 nc   
     6    1   53 nc   
     7    2    3 ar   
     8    2    9 ar   
     9    2   57 1    
    10    3    4 ar   
    11    3   58 1    
    12    4   59 1    
    13    4    5 ar   
    14    5    6 1    
    15    5    7 ar   
    16    7    8 1    
    17    7    9 ar   
    18    9   10 1    
    19   10   11 2    
    20   10   12 am   BACKBONE|DICT|INTERRES
    21   12   60 1    
    22   12   13 1    
    23   13   61 1    
    24   13   14 1    
    25   13   62 1    
    26   14   64 1    
    27   14   15 1    
    28   14   63 1    
    29   15   16 1    
    30   15   65 1    
    31   15   66 1    
    32   16   17 am   BACKBONE|DICT|INTERRES
    33   16   35 1    
    34   17   18 2    
    35   17   19 1    
    36   19   20 1    
    37   19   24 1    
    38   19   21 1    
    39   21   22 2    
    40   22   23 1    
    41   22   27 1    
    42   23   24 1    
    43   24   25 1    
    44   24   26 1    
    45   26   67 1    
    46   26   68 1    
    47   26   69 1    
    48   27   28 ar   
    49   27   34 ar   
    50   28   30 ar   
    51   28   29 1    
    52   30   32 ar   
    53   30   31 1    
    54   32   33 ar   
    55   32   70 1    
    56   33   71 1    
    57   33   34 ar   
    58   34   72 1    
    59   35   73 1    
    60   35   74 1    
    61   35   36 1    
    62   36   37 1    
    63   36   75 1    
    64   36   76 1    
    65   37   77 1    
    66   37   38 1    
    67   37   78 1    
    68   38   79 1    
    69   38   39 am   BACKBONE|DICT|INTERRES
    70   39   41 1    
    71   39   40 2    
    72   41   42 1    
    73   41   43 1    
    74   41   46 1    
    75   43   44 2    
    76   44   49 1    
    77   44   45 1    
    78   45   46 1    
    79   46   47 1    
    80   46   48 1    
    81   48   82 1    
    82   48   80 1    
    83   48   81 1    
    84   49   50 ar   
    85   49   56 ar   
    86   50   51 1    
    87   50   52 ar   
    88   52   53 1    
    89   52   54 ar   
    90   54   83 1    
    91   54   55 ar   
    92   55   56 ar   
    93   55   84 1    
    94   56   85 1    
@<TRIPOS>SUBSTRUCTURE
     1 UNK         1 GROUP             0       ****    0 ROOT    
