@<TRIPOS>MOLECULE
006_c2
337   342    1
SMALL
USER_CHARGES


@<TRIPOS>ATOM
      1 Fe1         0.0000    0.0000    0.0000 Fe        1 UNK         0.0000 
      2 O2          0.6367    8.4299    1.1323 O.3       1 UNK         0.0000 
      3 C3          0.2497    7.1807    0.6283 C.3       1 UNK         0.0000 
      4 C4          0.9208    6.0588    1.4308 C.3       1 UNK         0.0000 
      5 C5          0.5175    4.6776    0.9464 C.2       1 UNK         0.0000 
      6 C6         -0.9593    4.3284    1.0471 C.3       1 UNK         0.0000 
      7 C7          1.4764    3.7943    0.5157 C.2       1 UNK         0.0000 
      8 C8          1.2041    2.3589    0.1281 C.2       1 UNK         0.0000 
      9 O9          0.0000    2.0800    0.0000 O.co2     1 UNK         0.0000 
     10 N10         2.2396    1.3900   -0.0810 N.am      1 UNK         0.0000 
     11 O11         2.0800   -0.0000    0.0000 O.co2     1 UNK         0.0000 
     12 C12         3.3604    1.8697   -0.8778 C.3       1 UNK         0.0000 
     13 C13         4.7467    1.2763   -0.5956 C.3       1 UNK         0.0000 
     14 C14         5.6754    1.9109   -1.6590 C.3       1 UNK         0.0000 
     15 C15         7.1954    1.6461   -1.5979 C.3       1 UNK         0.0000 
     16 H16         7.4886    1.8528   -0.5458 H         1 UNK         0.0000 
     17 N17         7.8195    2.6213   -2.5140 N.am      1 UNK         0.0000 
     18 C18         8.5902    3.7228   -1.9447 C.3       1 UNK         0.0000 
     19 C19         7.6184    2.5587   -3.8797 C.2       1 UNK         0.0000 
     20 O20         6.9764    1.6413   -4.3709 O.2       1 UNK         0.0000 
     21 C21         8.1595    3.6055   -4.8207 C.3       1 UNK         0.0000 
     22 C22         7.5986    0.1975   -1.9007 C.2       1 UNK         0.0000 
     23 O23         7.0285   -0.7081   -1.3135 O.2       1 UNK         0.0000 
     24 O24         8.5591   -0.1313   -2.8114 O.3       1 UNK         0.0000 
     25 C25         9.8680    0.3216   -2.7580 C.3       1 UNK         0.0000 
     26 C26        10.5809    0.0883   -4.1018 C.3       1 UNK         0.0000 
     27 C27        11.9734    0.7202   -4.1128 C.2       1 UNK         0.0000 
     28 C28        12.0681    2.2183   -3.9278 C.3       1 UNK         0.0000 
     29 C29        13.1575    0.0770   -4.2946 C.2       1 UNK         0.0000 
     30 C30        13.4339   -1.3712   -4.5454 C.2       1 UNK         0.0000 
     31 O31        12.5139   -2.1652   -4.6612 O.2       1 UNK         0.0000 
     32 N32        14.7327   -1.8050   -4.6526 N.am      1 UNK         0.0000 
     33 O33        15.7427   -0.9317   -4.4951 O.3       1 UNK         0.0000 
     34 C34        15.0797   -3.1956   -4.9144 C.3       1 UNK         0.0000 
     35 C35        15.9429   -3.3112   -6.1833 C.3       1 UNK         0.0000 
     36 C36        16.3389   -4.7734   -6.4260 C.3       1 UNK         0.0000 
     37 C37        17.2137   -4.9843   -7.6754 C.3       1 UNK         0.0000 
     38 H38        16.6837   -4.6168   -8.5824 H         1 UNK         0.0000 
     39 N39        18.4818   -4.2508   -7.6158 N.am      1 UNK         0.0000 
     40 C40        19.6720   -4.8760   -7.3998 C.2       1 UNK         0.0000 
     41 O41        20.7248   -4.2669   -7.5209 O.2       1 UNK         0.0000 
     42 C42        19.6411   -6.2978   -6.9191 C.3       1 UNK         0.0000 
     43 H43        19.2409   -6.1998   -5.8848 H         1 UNK         0.0000 
     44 N44        18.6444   -7.0443   -7.6572 N.am      1 UNK         0.0000 
     45 C45        17.4406   -6.4722   -7.9211 C.2       1 UNK         0.0000 
     46 O46        16.5424   -7.1460   -8.4036 O.2       1 UNK         0.0000 
     47 C47        20.9889   -7.0393   -6.7932 C.3       1 UNK         0.0000 
     48 C48        21.6722   -7.3951   -8.1289 C.3       1 UNK         0.0000 
     49 C49        22.9066   -8.2712   -7.8506 C.3       1 UNK         0.0000 
     50 N50        23.4892   -8.8111   -9.0742 N.am      1 UNK         0.0000 
     51 O51        22.6996   -9.5514   -9.8718 O.3       1 UNK         0.0000 
     52 C52        24.8175   -8.6656   -9.3821 C.2       1 UNK         0.0000 
     53 O53        25.5441   -8.0132   -8.6464 O.2       1 UNK         0.0000 
     54 C54        25.3921   -9.3551  -10.5835 C.2       1 UNK         0.0000 
     55 C55        26.7032   -9.4034  -10.9386 C.2       1 UNK         0.0000 
     56 C56        27.7874   -8.7242  -10.1345 C.3       1 UNK         0.0000 
     57 C57        27.1109  -10.2036  -12.1650 C.3       1 UNK         0.0000 
     58 C58        27.7510   -9.3262  -13.2456 C.3       1 UNK         0.0000 
     59 O59        28.1368  -10.1127  -14.3402 O.3       1 UNK         0.0000 
     60 H60         0.1038    8.5803    1.9578 H         1 UNK         0.0000 
     61 H61         0.5600    7.1148   -0.4350 H         1 UNK         0.0000 
     62 H62        -0.8606    7.1049    0.6450 H         1 UNK         0.0000 
     63 H63         0.6217    6.1491    2.4985 H         1 UNK         0.0000 
     64 H64         2.0213    6.2013    1.3762 H         1 UNK         0.0000 
     65 H65        -1.3789    4.1103    0.0425 H         1 UNK         0.0000 
     66 H66        -1.1032    3.4574    1.7219 H         1 UNK         0.0000 
     67 H67        -1.5575    5.1531    1.4848 H         1 UNK         0.0000 
     68 H68         3.1030    1.6082   -1.9282 H         1 UNK         0.0000 
     69 H69         3.4391    2.9709   -0.8772 H         1 UNK         0.0000 
     70 H70         5.0746    1.5505    0.4293 H         1 UNK         0.0000 
     71 H71         4.7198    0.1717   -0.6993 H         1 UNK         0.0000 
     72 H72         5.5747    3.0140   -1.5335 H         1 UNK         0.0000 
     73 H73         5.2873    1.6506   -2.6658 H         1 UNK         0.0000 
     74 H74         9.6248    3.7214   -2.3377 H         1 UNK         0.0000 
     75 H75         8.1065    4.6898   -2.1975 H         1 UNK         0.0000 
     76 H76         8.6514    3.6659   -0.8382 H         1 UNK         0.0000 
     77 H77         7.7377    4.5984   -4.5702 H         1 UNK         0.0000 
     78 H78         9.2648    3.6521   -4.7615 H         1 UNK         0.0000 
     79 H79         7.8849    3.3664   -5.8698 H         1 UNK         0.0000 
     80 H80        10.4067   -0.2018   -1.9393 H         1 UNK         0.0000 
     81 H81         9.8905    1.3912   -2.5161 H         1 UNK         0.0000 
     82 H82        10.5764   -0.9957   -4.2997 H         1 UNK         0.0000 
     83 H83         9.9898    0.5701   -4.9108 H         1 UNK         0.0000 
     84 H84        11.0775    2.6911   -3.8361 H         1 UNK         0.0000 
     85 H85        12.6561    2.4534   -3.0153 H         1 UNK         0.0000 
     86 H86        12.5637    2.6760   -4.8103 H         1 UNK         0.0000 
     87 H87        14.0404    0.7096   -4.2642 H         1 UNK         0.0000 
     88 H88        15.9684   -0.9682   -3.5296 H         1 UNK         0.0000 
     89 H89        15.6580   -3.5812   -4.0472 H         1 UNK         0.0000 
     90 H90        14.1762   -3.8328   -5.0293 H         1 UNK         0.0000 
     91 H91        16.8610   -2.6979   -6.0579 H         1 UNK         0.0000 
     92 H92        15.3714   -2.9283   -7.0569 H         1 UNK         0.0000 
     93 H93        16.8893   -5.1570   -5.5388 H         1 UNK         0.0000 
     94 H94        15.4060   -5.3685   -6.5428 H         1 UNK         0.0000 
     95 H95        18.4769   -3.2462   -7.8511 H         1 UNK         0.0000 
     96 H96        18.8054   -8.0331   -7.9028 H         1 UNK         0.0000 
     97 H97        21.6836   -6.4431   -6.1617 H         1 UNK         0.0000 
     98 H98        20.7750   -7.9891   -6.2545 H         1 UNK         0.0000 
     99 H99        20.9622   -7.9788   -8.7508 H         1 UNK         0.0000 
    100 H100       21.9623   -6.4794   -8.6872 H         1 UNK         0.0000 
    101 H101       22.5859   -9.1402   -7.2356 H         1 UNK         0.0000 
    102 H102       23.6406   -7.6920   -7.2495 H         1 UNK         0.0000 
    103 H103       22.7418  -10.4707   -9.5006 H         1 UNK         0.0000 
    104 H104       24.6888   -9.8928  -11.2116 H         1 UNK         0.0000 
    105 H105       27.6219   -7.6267  -10.1198 H         1 UNK         0.0000 
    106 H106       28.7927   -8.9154  -10.5628 H         1 UNK         0.0000 
    107 H107       27.7959   -9.1220   -9.0980 H         1 UNK         0.0000 
    108 H108       26.2332  -10.7134  -12.6202 H         1 UNK         0.0000 
    109 H109       27.8286  -10.9927  -11.8521 H         1 UNK         0.0000 
    110 H110       28.6571   -8.8201  -12.8546 H         1 UNK         0.0000 
    111 H111       27.0453   -8.5295  -13.5735 H         1 UNK         0.0000 
    112 H112       27.3115  -10.3117  -14.8551 H         1 UNK         0.0000 
    113 O113        1.1457   -8.4148    1.0057 O.3       1 UNK         0.0000 
    114 C114        0.6296   -7.1976    0.5412 C.3       1 UNK         0.0000 
    115 C115        1.4142   -6.0310    1.1470 C.3       1 UNK         0.0000 
    116 C116        0.9178   -4.6851    0.6555 C.2       1 UNK         0.0000 
    117 C117        1.0437   -4.4052   -0.8315 C.3       1 UNK         0.0000 
    118 C118        0.4544   -3.7668    1.5561 C.2       1 UNK         0.0000 
    119 C119        0.0708   -2.3511    1.2189 C.2       1 UNK         0.0000 
    120 O120        0.0000   -2.0800    0.0000 O.co2     1 UNK         0.0000 
    121 N121       -0.1615   -1.3747    2.2359 N.am      1 UNK         0.0000 
    122 O122        0.0000    0.0000    2.0800 O.co2     1 UNK         0.0000 
    123 C123       -0.9000   -1.8115    3.4139 C.3       1 UNK         0.0000 
    124 C124       -0.3458   -1.4097    4.7890 C.3       1 UNK         0.0000 
    125 C125       -1.3235   -2.0298    5.8156 C.3       1 UNK         0.0000 
    126 C126       -1.0831   -1.8161    7.3289 C.3       1 UNK         0.0000 
    127 H127       -0.0008   -2.0020    7.4992 H         1 UNK         0.0000 
    128 N128       -1.8926   -2.8319    8.0323 N.am      1 UNK         0.0000 
    129 C129       -1.2035   -3.9034    8.7452 C.3       1 UNK         0.0000 
    130 C130       -3.2728   -2.8349    7.9660 C.2       1 UNK         0.0000 
    131 O131       -3.8693   -1.9401    7.3837 O.2       1 UNK         0.0000 
    132 C132       -4.1059   -3.9308    8.5800 C.3       1 UNK         0.0000 
    133 C133       -1.3814   -0.3839    7.7949 C.2       1 UNK         0.0000 
    134 O134       -0.8568    0.5455    7.2030 O.2       1 UNK         0.0000 
    135 O135       -2.2448   -0.0912    8.8103 O.3       1 UNK         0.0000 
    136 C136       -2.1168   -0.5443   10.1137 C.3       1 UNK         0.0000 
    137 C137       -3.4400   -0.3595   10.8809 C.3       1 UNK         0.0000 
    138 C138       -3.3737   -0.9713   12.2808 C.2       1 UNK         0.0000 
    139 C139       -3.1100   -2.4565   12.3896 C.3       1 UNK         0.0000 
    140 C140       -3.5500   -0.3204   13.4622 C.2       1 UNK         0.0000 
    141 C141       -3.8660    1.1173   13.7301 C.2       1 UNK         0.0000 
    142 O142       -4.0601    1.8906   12.8058 O.2       1 UNK         0.0000 
    143 N143       -3.9426    1.5643   15.0267 N.am      1 UNK         0.0000 
    144 O144       -3.6979    0.7154   16.0403 O.3       1 UNK         0.0000 
    145 C145       -4.2598    2.9452   15.3675 C.3       1 UNK         0.0000 
    146 C146       -5.4906    3.0098   16.2893 C.3       1 UNK         0.0000 
    147 C147       -5.7857    4.4622   16.6870 C.3       1 UNK         0.0000 
    148 C148       -6.9952    4.6168   17.6279 C.3       1 UNK         0.0000 
    149 H149       -7.9100    4.2026   17.1482 H         1 UNK         0.0000 
    150 N150       -6.8306    3.8929   18.8923 N.am      1 UNK         0.0000 
    151 C151       -6.5679    4.5324   20.0655 C.2       1 UNK         0.0000 
    152 O152       -6.5953    3.9232   21.1249 O.2       1 UNK         0.0000 
    153 C153       -6.1561    5.9750   20.0013 C.3       1 UNK         0.0000 
    154 H154       -5.1446    5.9260   19.5386 H         1 UNK         0.0000 
    155 N155       -6.9904    6.6809   19.0518 N.am      1 UNK         0.0000 
    156 C156       -7.3001    6.0920   17.8677 C.2       1 UNK         0.0000 
    157 O157       -7.8717    6.7365   17.0004 O.2       1 UNK         0.0000 
    158 C158       -5.9875    6.7263   21.3385 C.3       1 UNK         0.0000 
    159 C159       -7.2981    7.0034   22.1005 C.3       1 UNK         0.0000 
    160 C160       -7.0012    7.8869   23.3241 C.3       1 UNK         0.0000 
    161 N161       -8.2217    8.3316   23.9876 N.am      1 UNK         0.0000 
    162 O162       -9.1147    9.0250   23.2602 O.3       1 UNK         0.0000 
    163 C163       -8.4409    8.1389   25.3271 C.2       1 UNK         0.0000 
    164 O164       -7.6190    7.5303   25.9963 O.2       1 UNK         0.0000 
    165 C165       -9.6584    8.7193   25.9829 C.2       1 UNK         0.0000 
    166 C166       -9.9467    8.7044   27.3111 C.2       1 UNK         0.0000 
    167 C167       -9.0376    8.0611   28.3324 C.3       1 UNK         0.0000 
    168 C168      -11.2095    9.3925   27.8030 C.3       1 UNK         0.0000 
    169 C169      -12.1835    8.4127   28.4654 C.3       1 UNK         0.0000 
    170 O170      -13.3172    9.0962   28.9269 O.3       1 UNK         0.0000 
    171 H171        1.9811   -8.5814    0.4938 H         1 UNK         0.0000 
    172 H172       -0.4351   -7.1232    0.8453 H         1 UNK         0.0000 
    173 H173        0.6527   -7.1850   -0.5711 H         1 UNK         0.0000 
    174 H174        2.4868   -6.1236    0.8663 H         1 UNK         0.0000 
    175 H175        1.3513   -6.1074    2.2542 H         1 UNK         0.0000 
    176 H176        0.0442   -4.2145   -1.2758 H         1 UNK         0.0000 
    177 H177        1.7132   -3.5354   -1.0042 H         1 UNK         0.0000 
    178 H178        1.4985   -5.2560   -1.3784 H         1 UNK         0.0000 
    179 H179       -1.9086   -1.3494    3.3281 H         1 UNK         0.0000 
    180 H180       -1.0952   -2.9009    3.3946 H         1 UNK         0.0000 
    181 H181        0.6750   -1.8225    4.9365 H         1 UNK         0.0000 
    182 H182       -0.3147   -0.3034    4.8676 H         1 UNK         0.0000 
    183 H183       -1.2630   -3.1304    5.6489 H         1 UNK         0.0000 
    184 H184       -2.3550   -1.7057    5.5668 H         1 UNK         0.0000 
    185 H185       -1.5005   -3.9129    9.8130 H         1 UNK         0.0000 
    186 H186       -1.4529   -4.8841    8.2887 H         1 UNK         0.0000 
    187 H187       -0.1000   -3.7943    8.7094 H         1 UNK         0.0000 
    188 H188       -3.8485   -4.9048    8.1151 H         1 UNK         0.0000 
    189 H189       -3.9397   -3.9912    9.6701 H         1 UNK         0.0000 
    190 H190       -5.1876   -3.7430    8.4066 H         1 UNK         0.0000 
    191 H191       -1.2984    0.0120   10.6185 H         1 UNK         0.0000 
    192 H192       -1.8334   -1.6045   10.1217 H         1 UNK         0.0000 
    193 H193       -3.6846    0.7150   10.8743 H         1 UNK         0.0000 
    194 H194       -4.2503   -0.8815   10.3269 H         1 UNK         0.0000 
    195 H195       -3.0163   -2.9389   11.4039 H         1 UNK         0.0000 
    196 H196       -2.1721   -2.6361   12.9564 H         1 UNK         0.0000 
    197 H197       -3.9551   -2.9507   12.9149 H         1 UNK         0.0000 
    198 H198       -3.4584   -0.9378   14.3517 H         1 UNK         0.0000 
    199 H199       -2.7279    0.8073   16.2272 H         1 UNK         0.0000 
    200 H200       -3.3876    3.3822   15.9007 H         1 UNK         0.0000 
    201 H201       -4.4479    3.5630   14.4629 H         1 UNK         0.0000 
    202 H202       -5.2904    2.4136   17.2052 H         1 UNK         0.0000 
    203 H203       -6.3710    2.5784   15.7649 H         1 UNK         0.0000 
    204 H204       -4.8908    4.8942   17.1871 H         1 UNK         0.0000 
    205 H205       -5.9811    5.0430   15.7582 H         1 UNK         0.0000 
    206 H206       -7.0219    2.8790   18.9038 H         1 UNK         0.0000 
    207 H207       -7.2757    7.6562   19.2277 H         1 UNK         0.0000 
    208 H208       -5.2834    6.1661   21.9923 H         1 UNK         0.0000 
    209 H209       -5.5167    7.7046   21.0956 H         1 UNK         0.0000 
    210 H210       -7.9951    7.5517   21.4328 H         1 UNK         0.0000 
    211 H211       -7.7825    6.0549   22.4167 H         1 UNK         0.0000 
    212 H212       -6.4665    8.7982   22.9779 H         1 UNK         0.0000 
    213 H213       -6.3186    7.3413   24.0113 H         1 UNK         0.0000 
    214 H214       -8.8082    9.9674   23.3004 H         1 UNK         0.0000 
    215 H215      -10.3619    9.2235   25.3286 H         1 UNK         0.0000 
    216 H216       -8.9472    6.9731   28.1325 H         1 UNK         0.0000 
    217 H217       -9.4271    8.1908   29.3632 H         1 UNK         0.0000 
    218 H218       -8.0357    8.5386   28.3020 H         1 UNK         0.0000 
    219 H219      -11.7477    9.8878   26.9649 H         1 UNK         0.0000 
    220 H220      -10.9242   10.1839   28.5296 H         1 UNK         0.0000 
    221 H221      -11.7090    7.9148   29.3355 H         1 UNK         0.0000 
    222 H222      -12.4812    7.6115   27.7511 H         1 UNK         0.0000 
    223 H223      -13.8886    9.2713   28.1340 H         1 UNK         0.0000 
    224 O224       -8.4165    1.1211   -1.1943 O.3       1 UNK         0.0000 
    225 C225       -7.2184    0.6088   -0.6783 C.3       1 UNK         0.0000 
    226 C226       -6.0307    1.3979   -1.2326 C.3       1 UNK         0.0000 
    227 C227       -4.7005    0.8971   -0.7008 C.2       1 UNK         0.0000 
    228 C228       -4.4587    1.0070    0.7919 C.3       1 UNK         0.0000 
    229 C229       -3.7603    0.4437   -1.5791 C.2       1 UNK         0.0000 
    230 C230       -2.3497    0.0582   -1.2233 C.2       1 UNK         0.0000 
    231 O231       -2.0800    0.0000    0.0000 O.co2     1 UNK         0.0000 
    232 N232       -1.3713   -0.1642   -2.2410 N.am      1 UNK         0.0000 
    233 O233        0.0000    0.0000   -2.0800 O.co2     1 UNK         0.0000 
    234 C234       -1.8025   -0.8282   -3.4666 C.3       1 UNK         0.0000 
    235 C235       -1.4573   -0.1370   -4.7947 C.3       1 UNK         0.0000 
    236 C236       -2.1122   -1.0032   -5.8973 C.3       1 UNK         0.0000 
    237 C237       -1.9254   -0.6067   -7.3826 C.3       1 UNK         0.0000 
    238 H238       -2.0756    0.4931   -7.4361 H         1 UNK         0.0000 
    239 N239       -2.9816   -1.2973   -8.1505 N.am      1 UNK         0.0000 
    240 C240       -4.0251   -0.4939   -8.7817 C.3       1 UNK         0.0000 
    241 C241       -3.0461   -2.6751   -8.2248 C.2       1 UNK         0.0000 
    242 O242       -2.1763   -3.3668   -7.7146 O.2       1 UNK         0.0000 
    243 C243       -4.1817   -3.3909   -8.9113 C.3       1 UNK         0.0000 
    244 C244       -0.5121   -0.9035   -7.9029 C.2       1 UNK         0.0000 
    245 O245        0.4424   -0.4591   -7.2857 O.2       1 UNK         0.0000 
    246 O246       -0.2610   -1.6949   -8.9851 O.3       1 UNK         0.0000 
    247 C247       -0.7154   -1.4600  -10.2727 C.3       1 UNK         0.0000 
    248 C248       -0.5951   -2.7423  -11.1185 C.3       1 UNK         0.0000 
    249 C249       -1.1799   -2.5664  -12.5201 C.2       1 UNK         0.0000 
    250 C250       -2.6432   -2.2012  -12.6341 C.3       1 UNK         0.0000 
    251 C251       -0.5216   -2.7285  -13.7006 C.2       1 UNK         0.0000 
    252 C252        0.8978   -3.1259  -13.9652 C.2       1 UNK         0.0000 
    253 O253        1.6432   -3.4103  -13.0413 O.2       1 UNK         0.0000 
    254 N254        1.3600   -3.1723  -15.2580 N.am      1 UNK         0.0000 
    255 O255        0.5438   -2.8300  -16.2702 O.3       1 UNK         0.0000 
    256 C256        2.7254   -3.5561  -15.5948 C.3       1 UNK         0.0000 
    257 C257        2.7348   -4.7412  -16.5769 C.3       1 UNK         0.0000 
    258 C258        4.1745   -5.0943  -16.9759 C.3       1 UNK         0.0000 
    259 C259        4.2742   -6.2549  -17.9823 C.3       1 UNK         0.0000 
    260 H260        3.8083   -7.1726  -17.5595 H         1 UNK         0.0000 
    261 N261        3.5717   -5.9793  -19.2392 N.am      1 UNK         0.0000 
    262 C262        4.2306   -5.6855  -20.3924 C.2       1 UNK         0.0000 
    263 O263        3.6264   -5.6217  -21.4530 O.2       1 UNK         0.0000 
    264 C264        5.6931   -5.3591  -20.3018 C.3       1 UNK         0.0000 
    265 H265        5.6985   -4.3742  -19.7828 H         1 UNK         0.0000 
    266 N266        6.3457   -6.2824  -19.3979 N.am      1 UNK         0.0000 
    267 C267        5.7325   -6.6244  -18.2331 C.2       1 UNK         0.0000 
    268 O268        6.3405   -7.2763  -17.3975 O.2       1 UNK         0.0000 
    269 C269        6.4582   -5.1587  -21.6269 C.3       1 UNK         0.0000 
    270 C270        6.6520   -6.4362  -22.4666 C.3       1 UNK         0.0000 
    271 C271        7.5430   -6.1234  -23.6808 C.3       1 UNK         0.0000 
    272 N272        7.8925   -7.3283  -24.4254 N.am      1 UNK         0.0000 
    273 O273        8.5319   -8.3103  -23.7664 O.3       1 UNK         0.0000 
    274 C274        7.6590   -7.4540  -25.7706 C.2       1 UNK         0.0000 
    275 O275        7.0962   -6.5540  -26.3768 O.2       1 UNK         0.0000 
    276 C276        8.1348   -8.6700  -26.5080 C.2       1 UNK         0.0000 
    277 C277        8.0659   -8.8809  -27.8488 C.2       1 UNK         0.0000 
    278 C278        7.4661   -7.8713  -28.7999 C.3       1 UNK         0.0000 
    279 C279        8.6444  -10.1609  -28.4289 C.3       1 UNK         0.0000 
    280 C280        7.5756  -11.0211  -29.1111 C.3       1 UNK         0.0000 
    281 O281        8.1579  -12.1757  -29.6527 O.3       1 UNK         0.0000 
    282 H282       -8.5940    1.9700   -0.7094 H         1 UNK         0.0000 
    283 H283       -7.1276   -0.4546   -0.9829 H         1 UNK         0.0000 
    284 H284       -7.2517    0.6317    0.4333 H         1 UNK         0.0000 
    285 H285       -6.1333    2.4685   -0.9489 H         1 UNK         0.0000 
    286 H286       -6.0702    1.3438   -2.3426 H         1 UNK         0.0000 
    287 H287       -4.2741    0.0027    1.2277 H         1 UNK         0.0000 
    288 H288       -3.5955    1.6770    0.9932 H         1 UNK         0.0000 
    289 H289       -5.3270    1.4519    1.3190 H         1 UNK         0.0000 
    290 H290       -1.3089   -1.8253   -3.4773 H         1 UNK         0.0000 
    291 H291       -2.8828   -1.0651   -3.4406 H         1 UNK         0.0000 
    292 H292       -1.8837    0.8885   -4.8245 H         1 UNK         0.0000 
    293 H293       -0.3548   -0.0830   -4.9054 H         1 UNK         0.0000 
    294 H294       -3.2073   -0.9510   -5.6958 H         1 UNK         0.0000 
    295 H295       -1.7931   -2.0575   -5.7637 H         1 UNK         0.0000 
    296 H296       -4.0511   -0.6819   -9.8742 H         1 UNK         0.0000 
    297 H297       -5.0144   -0.7444   -8.3444 H         1 UNK         0.0000 
    298 H298       -3.8682    0.5951   -8.6378 H         1 UNK         0.0000 
    299 H299       -5.1413   -3.1394   -8.4141 H         1 UNK         0.0000 
    300 H300       -4.2390   -3.1096   -9.9780 H         1 UNK         0.0000 
    301 H301       -4.0428   -4.4919   -8.8521 H         1 UNK         0.0000 
    302 H302       -0.1197   -0.6404  -10.7284 H         1 UNK         0.0000 
    303 H303       -1.7614   -1.1250  -10.2542 H         1 UNK         0.0000 
    304 H304        0.4638   -3.0464  -11.1156 H         1 UNK         0.0000 
    305 H305       -1.1676   -3.5525  -10.6169 H         1 UNK         0.0000 
    306 H306       -3.1346   -2.1182  -11.6512 H         1 UNK         0.0000 
    307 H307       -2.7524   -1.2294  -13.1603 H         1 UNK         0.0000 
    308 H308       -3.1828   -2.9876  -13.2042 H         1 UNK         0.0000 
    309 H309       -1.1172   -2.5543  -14.5926 H         1 UNK         0.0000 
    310 H310        0.6995   -1.8607  -16.4126 H         1 UNK         0.0000 
    311 H311        3.2213   -2.6866  -16.0783 H         1 UNK         0.0000 
    312 H312        3.3163   -3.8243  -14.6925 H         1 UNK         0.0000 
    313 H313        2.1628   -4.4610  -17.4874 H         1 UNK         0.0000 
    314 H314        2.2485   -5.6222  -16.1042 H         1 UNK         0.0000 
    315 H315        4.6602   -4.1987  -17.4223 H         1 UNK         0.0000 
    316 H316        4.7332   -5.3726  -16.0549 H         1 UNK         0.0000 
    317 H317        2.5521   -6.1125  -19.2651 H         1 UNK         0.0000 
    318 H318        7.3057   -6.6107  -19.5875 H         1 UNK         0.0000 
    319 H319        5.9423   -4.3844  -22.2369 H         1 UNK         0.0000 
    320 H320        7.4634   -4.7637  -21.3605 H         1 UNK         0.0000 
    321 H321        7.1594   -7.2034  -21.8452 H         1 UNK         0.0000 
    322 H322        5.6740   -6.8420  -22.8028 H         1 UNK         0.0000 
    323 H323        8.4923   -5.6740  -23.3157 H         1 UNK         0.0000 
    324 H324        7.0387   -5.3644  -24.3173 H         1 UNK         0.0000 
    325 H325        9.4934   -8.0690  -23.8089 H         1 UNK         0.0000 
    326 H326        8.6011   -9.4447  -25.9075 H         1 UNK         0.0000 
    327 H327        6.3933   -7.7130  -28.5632 H         1 UNK         0.0000 
    328 H328        7.5399   -8.2104  -29.8537 H         1 UNK         0.0000 
    329 H329        8.0175   -6.9103  -28.7294 H         1 UNK         0.0000 
    330 H330        9.1200  -10.7800  -27.6365 H         1 UNK         0.0000 
    331 H331        9.4351   -9.8946  -29.1633 H         1 UNK         0.0000 
    332 H332        7.0916  -10.4636  -29.9388 H         1 UNK         0.0000 
    333 H333        6.7738  -11.2967  -28.3887 H         1 UNK         0.0000 
    334 H334        8.3065  -12.8027  -28.8974 H         1 UNK         0.0000 
    335 H335       -4.0056    0.3373   -2.6255 H         1 UNK         0.0000 
    336 H336        2.5058    4.1113    0.4359 H         1 UNK         0.0000 
    337 H337        0.3414   -4.0389    2.5951 H         1 UNK         0.0000 
@<TRIPOS>BOND
     1    1    9 nc   
     2    1   11 nc   
     3    1  120 nc   
     4    1  122 nc   
     5    1  231 nc   
     6    1  233 nc   
     7    2   60 1    
     8    2    3 1    
     9    3   62 1    
    10    3    4 1    
    11    3   61 1    
    12    4   63 1    
    13    4    5 1    
    14    4   64 1    
    15    5    7 2    
    16    5    6 1    
    17    6   67 1    
    18    6   66 1    
    19    6   65 1    
    20    7    8 1    
    21    7  336 1    
    22    8    9 2    
    23    8   10 am   BACKBONE|DICT|INTERRES
    24   10   11 1    
    25   10   12 1    
    26   12   69 1    
    27   12   13 1    
    28   12   68 1    
    29   13   70 1    
    30   13   14 1    
    31   13   71 1    
    32   14   15 1    
    33   14   72 1    
    34   14   73 1    
    35   15   16 1    
    36   15   17 1    
    37   15   22 1    
    38   17   18 1    
    39   17   19 am   BACKBONE|DICT|INTERRES
    40   18   76 1    
    41   18   74 1    
    42   18   75 1    
    43   19   20 2    
    44   19   21 1    
    45   21   78 1    
    46   21   77 1    
    47   21   79 1    
    48   22   23 2    
    49   22   24 1    
    50   24   25 1    
    51   25   81 1    
    52   25   80 1    
    53   25   26 1    
    54   26   27 1    
    55   26   82 1    
    56   26   83 1    
    57   27   28 1    
    58   27   29 2    
    59   28   84 1    
    60   28   85 1    
    61   28   86 1    
    62   29   87 1    
    63   29   30 1    
    64   30   31 2    
    65   30   32 am   BACKBONE|DICT|INTERRES
    66   32   33 1    
    67   32   34 1    
    68   33   88 1    
    69   34   89 1    
    70   34   35 1    
    71   34   90 1    
    72   35   91 1    
    73   35   36 1    
    74   35   92 1    
    75   36   93 1    
    76   36   37 1    
    77   36   94 1    
    78   37   38 1    
    79   37   39 1    
    80   37   45 1    
    81   39   40 am   BACKBONE|DICT|INTERRES
    82   39   95 1    
    83   40   42 1    
    84   40   41 2    
    85   42   47 1    
    86   42   43 1    
    87   42   44 1    
    88   44   45 am   BACKBONE|DICT|INTERRES
    89   44   96 1    
    90   45   46 2    
    91   47   98 1    
    92   47   97 1    
    93   47   48 1    
    94   48   49 1    
    95   48   99 1    
    96   48  100 1    
    97   49  102 1    
    98   49  101 1    
    99   49   50 1    
   100   50   51 1    
   101   50   52 am   BACKBONE|DICT|INTERRES
   102   51  103 1    
   103   52   53 2    
   104   52   54 1    
   105   54   55 2    
   106   54  104 1    
   107   55   56 1    
   108   55   57 1    
   109   56  105 1    
   110   56  107 1    
   111   56  106 1    
   112   57  109 1    
   113   57   58 1    
   114   57  108 1    
   115   58  110 1    
   116   58   59 1    
   117   58  111 1    
   118   59  112 1    
   119  113  114 1    
   120  113  171 1    
   121  114  172 1    
   122  114  115 1    
   123  114  173 1    
   124  115  175 1    
   125  115  116 1    
   126  115  174 1    
   127  116  118 2    
   128  116  117 1    
   129  117  176 1    
   130  117  177 1    
   131  117  178 1    
   132  118  119 1    
   133  118  337 1    
   134  119  121 am   BACKBONE|DICT|INTERRES
   135  119  120 2    
   136  121  123 1    
   137  121  122 1    
   138  123  124 1    
   139  123  179 1    
   140  123  180 1    
   141  124  182 1    
   142  124  181 1    
   143  124  125 1    
   144  125  126 1    
   145  125  183 1    
   146  125  184 1    
   147  126  127 1    
   148  126  133 1    
   149  126  128 1    
   150  128  129 1    
   151  128  130 am   BACKBONE|DICT|INTERRES
   152  129  185 1    
   153  129  186 1    
   154  129  187 1    
   155  130  132 1    
   156  130  131 2    
   157  132  189 1    
   158  132  188 1    
   159  132  190 1    
   160  133  135 1    
   161  133  134 2    
   162  135  136 1    
   163  136  192 1    
   164  136  191 1    
   165  136  137 1    
   166  137  138 1    
   167  137  193 1    
   168  137  194 1    
   169  138  139 1    
   170  138  140 2    
   171  139  197 1    
   172  139  196 1    
   173  139  195 1    
   174  140  141 1    
   175  140  198 1    
   176  141  143 am   BACKBONE|DICT|INTERRES
   177  141  142 2    
   178  143  145 1    
   179  143  144 1    
   180  144  199 1    
   181  145  200 1    
   182  145  146 1    
   183  145  201 1    
   184  146  147 1    
   185  146  202 1    
   186  146  203 1    
   187  147  204 1    
   188  147  148 1    
   189  147  205 1    
   190  148  149 1    
   191  148  156 1    
   192  148  150 1    
   193  150  206 1    
   194  150  151 am   BACKBONE|DICT|INTERRES
   195  151  152 2    
   196  151  153 1    
   197  153  154 1    
   198  153  158 1    
   199  153  155 1    
   200  155  207 1    
   201  155  156 am   BACKBONE|DICT|INTERRES
   202  156  157 2    
   203  158  208 1    
   204  158  159 1    
   205  158  209 1    
   206  159  211 1    
   207  159  160 1    
   208  159  210 1    
   209  160  161 1    
   210  160  213 1    
   211  160  212 1    
   212  161  163 am   BACKBONE|DICT|INTERRES
   213  161  162 1    
   214  162  214 1    
   215  163  165 1    
   216  163  164 2    
   217  165  166 2    
   218  165  215 1    
   219  166  168 1    
   220  166  167 1    
   221  167  217 1    
   222  167  216 1    
   223  167  218 1    
   224  168  169 1    
   225  168  220 1    
   226  168  219 1    
   227  169  170 1    
   228  169  221 1    
   229  169  222 1    
   230  170  223 1    
   231  224  282 1    
   232  224  225 1    
   233  225  284 1    
   234  225  226 1    
   235  225  283 1    
   236  226  285 1    
   237  226  227 1    
   238  226  286 1    
   239  227  229 2    
   240  227  228 1    
   241  228  288 1    
   242  228  287 1    
   243  228  289 1    
   244  229  230 1    
   245  229  335 1    
   246  230  231 2    
   247  230  232 am   BACKBONE|DICT|INTERRES
   248  232  233 1    
   249  232  234 1    
   250  234  291 1    
   251  234  235 1    
   252  234  290 1    
   253  235  236 1    
   254  235  292 1    
   255  235  293 1    
   256  236  295 1    
   257  236  294 1    
   258  236  237 1    
   259  237  238 1    
   260  237  239 1    
   261  237  244 1    
   262  239  240 1    
   263  239  241 am   BACKBONE|DICT|INTERRES
   264  240  298 1    
   265  240  297 1    
   266  240  296 1    
   267  241  242 2    
   268  241  243 1    
   269  243  301 1    
   270  243  299 1    
   271  243  300 1    
   272  244  245 2    
   273  244  246 1    
   274  246  247 1    
   275  247  303 1    
   276  247  248 1    
   277  247  302 1    
   278  248  304 1    
   279  248  305 1    
   280  248  249 1    
   281  249  250 1    
   282  249  251 2    
   283  250  306 1    
   284  250  307 1    
   285  250  308 1    
   286  251  252 1    
   287  251  309 1    
   288  252  253 2    
   289  252  254 am   BACKBONE|DICT|INTERRES
   290  254  255 1    
   291  254  256 1    
   292  255  310 1    
   293  256  312 1    
   294  256  257 1    
   295  256  311 1    
   296  257  314 1    
   297  257  258 1    
   298  257  313 1    
   299  258  316 1    
   300  258  259 1    
   301  258  315 1    
   302  259  260 1    
   303  259  261 1    
   304  259  267 1    
   305  261  262 am   BACKBONE|DICT|INTERRES
   306  261  317 1    
   307  262  264 1    
   308  262  263 2    
   309  264  265 1    
   310  264  266 1    
   311  264  269 1    
   312  266  267 am   BACKBONE|DICT|INTERRES
   313  266  318 1    
   314  267  268 2    
   315  269  320 1    
   316  269  270 1    
   317  269  319 1    
   318  270  321 1    
   319  270  271 1    
   320  270  322 1    
   321  271  323 1    
   322  271  272 1    
   323  271  324 1    
   324  272  273 1    
   325  272  274 am   BACKBONE|DICT|INTERRES
   326  273  325 1    
   327  274  275 2    
   328  274  276 1    
   329  276  326 1    
   330  276  277 2    
   331  277  278 1    
   332  277  279 1    
   333  278  329 1    
   334  278  327 1    
   335  278  328 1    
   336  279  330 1    
   337  279  280 1    
   338  279  331 1    
   339  280  333 1    
   340  280  281 1    
   341  280  332 1    
   342  281  334 1    
@<TRIPOS>SUBSTRUCTURE
     1 UNK         1 GROUP             0       ****    0 ROOT    
