@<TRIPOS>MOLECULE
185_A_s_c1
49   55    1
SMALL
USER_CHARGES


@<TRIPOS>ATOM
      1 C1          1.2541   -1.8971   -1.0174 C.ar      1 UNK         0.0000 
      2 C2         -0.1301   -1.8962   -0.9100 C.ar      1 UNK         0.0000 
      3 C3         -0.7915   -3.0790   -0.6195 C.ar      1 UNK         0.0000 
      4 C4         -0.1040   -4.2921   -0.5611 C.ar      1 UNK         0.0000 
      5 O5         -0.8528   -5.2828   -0.2517 O.co2     1 UNK         0.0000 
      6 C6          1.3069   -4.3291   -0.8117 C.ar      1 UNK         0.0000 
      7 O7          1.9700   -5.4237   -1.0344 O.co2     1 UNK         0.0000 
      8 C8          1.9978   -3.0853   -0.8794 C.ar      1 UNK         0.0000 
      9 C9          3.5091   -2.9256   -0.7388 C.2       1 UNK         0.0000 
     10 O10         4.1440   -2.2095   -1.5190 O.2       1 UNK         0.0000 
     11 N11         4.1536   -3.3105    0.3911 N.am      1 UNK         0.0000 
     12 C12         3.9349   -4.4252    1.3327 C.3       1 UNK         0.0000 
     13 H13         3.6459   -5.2533    0.7077 H         1 UNK         0.0000 
     14 C14         2.7709   -4.2379    2.3755 C.3       1 UNK         0.0000 
     15 O15         2.0649   -5.4166    2.6707 O.co2     1 UNK         0.0000 
     16 C16         5.2926   -4.8767    1.9672 C.3       1 UNK         0.0000 
     17 C17         5.3567   -6.2776    2.6492 C.3       1 UNK         0.0000 
     18 C18         5.6693   -7.4911    1.7494 C.3       1 UNK         0.0000 
     19 C19         4.6951   -7.8559    0.6021 C.3       1 UNK         0.0000 
     20 N20         3.3499   -8.3752    0.9140 N.am      1 UNK         0.0000 
     21 C21         3.0985   -9.4552    1.6980 C.2       1 UNK         0.0000 
     22 O22         3.9043  -10.0018    2.4546 O.2       1 UNK         0.0000 
     23 C23         1.8131  -10.1146    1.2548 C.ar      1 UNK         0.0000 
     24 C24         0.7183   -9.2977    0.9464 C.ar      1 UNK         0.0000 
     25 O25         0.2812   -8.4820    1.8445 O.co2     1 UNK         0.0000 
     26 C26         0.2015   -9.4085   -0.3544 C.ar      1 UNK         0.0000 
     27 O27        -0.3961   -8.4601   -0.9382 O.co2     1 UNK         0.0000 
     28 C28         0.4110  -10.5879   -1.0768 C.ar      1 UNK         0.0000 
     29 C29         1.1569  -11.6243   -0.5117 C.ar      1 UNK         0.0000 
     30 C30         1.9037  -11.3722    0.6420 C.ar      1 UNK         0.0000 
     31 H31         1.7646   -0.9563   -1.1777 H         1 UNK         0.0000 
     32 H32        -0.6973   -0.9831   -1.0140 H         1 UNK         0.0000 
     33 H33        -1.8595   -3.0613   -0.4483 H         1 UNK         0.0000 
     34 H34         5.0502   -2.8771    0.4596 H         1 UNK         0.0000 
     35 H35         2.0773   -3.4989    1.9784 H         1 UNK         0.0000 
     36 H36         3.1754   -3.7189    3.2507 H         1 UNK         0.0000 
     37 H37         5.6139   -4.1211    2.6864 H         1 UNK         0.0000 
     38 H38         6.0652   -4.8489    1.2011 H         1 UNK         0.0000 
     39 H39         4.4602   -6.4767    3.2359 H         1 UNK         0.0000 
     40 H40         6.1513   -6.2306    3.3952 H         1 UNK         0.0000 
     41 H41         5.8052   -8.3639    2.3841 H         1 UNK         0.0000 
     42 H42         6.6496   -7.3250    1.3022 H         1 UNK         0.0000 
     43 H43         5.2011   -8.5592   -0.0650 H         1 UNK         0.0000 
     44 H44         4.5471   -6.9791   -0.0235 H         1 UNK         0.0000 
     45 H45         2.8035   -8.5344    0.0791 H         1 UNK         0.0000 
     46 H46        -0.0179  -10.6946   -2.0633 H         1 UNK         0.0000 
     47 H47         1.2549  -12.5620   -1.0308 H         1 UNK         0.0000 
     48 H48         2.6457  -12.0907    0.9714 H         1 UNK         0.0000 
     49 Fe49        0.8304   -6.7122    0.5874 Fe        1 UNK         0.0000 
@<TRIPOS>BOND
     1    1    2 ar   
     2    1    8 ar   
     3    1   31 1    
     4    2    3 ar   
     5    2   32 1    
     6    3    4 ar   
     7    3   33 1    
     8    4    5 1    
     9    4    6 ar   
    10    5   49 nc   
    11    6    7 1    
    12    6    8 ar   
    13    7   49 nc   
    14    8    9 1    
    15    9   10 2    
    16    9   11 am   BACKBONE|DICT|INTERRES
    17   11   34 1    
    18   11   12 1    
    19   12   14 1    
    20   12   16 1    
    21   12   13 1    
    22   14   15 1    
    23   14   35 1    
    24   14   36 1    
    25   15   49 nc   
    26   16   17 1    
    27   16   37 1    
    28   16   38 1    
    29   17   18 1    
    30   17   39 1    
    31   17   40 1    
    32   18   19 1    
    33   18   41 1    
    34   18   42 1    
    35   19   20 1    
    36   19   43 1    
    37   19   44 1    
    38   20   21 am   BACKBONE|DICT|INTERRES
    39   20   45 1    
    40   20   49 nc   
    41   21   22 2    
    42   21   23 1    
    43   23   24 ar   
    44   23   30 ar   
    45   24   25 1    
    46   24   26 ar   
    47   25   49 nc   
    48   26   27 1    
    49   26   28 ar   
    50   27   49 nc   
    51   28   29 ar   
    52   28   46 1    
    53   29   30 ar   
    54   29   47 1    
    55   30   48 1    
@<TRIPOS>SUBSTRUCTURE
     1 UNK         1 GROUP             0       ****    0 ROOT    
