@<TRIPOS>MOLECULE
268_BCMH_c1
69   75    1
SMALL
USER_CHARGES


@<TRIPOS>ATOM
      1 Fe1        -0.2080   -2.6453    0.3618 Fe        1 UNK         0.0000 
      2 O2         -1.4228   -1.1340    0.6498 O.co2     1 UNK         0.0000 
      3 C3         -2.6771   -1.2732    0.4635 C.ar      1 UNK         0.0000 
      4 C4         -3.1350   -2.5878    0.4967 C.ar      1 UNK         0.0000 
      5 O5         -2.2548   -3.4489    0.7402 O.co2     1 UNK         0.0000 
      6 C6         -4.4271   -2.9213    0.1109 C.ar      1 UNK         0.0000 
      7 C7         -5.3090   -1.9014   -0.2610 C.ar      1 UNK         0.0000 
      8 C8         -4.8819   -0.5677   -0.2433 C.ar      1 UNK         0.0000 
      9 C9         -3.5660   -0.2295    0.1111 C.ar      1 UNK         0.0000 
     10 C10        -3.1592    1.2180    0.0302 C.2       1 UNK         0.0000 
     11 O11        -3.9799    2.1458    0.1320 O.2       1 UNK         0.0000 
     12 N12        -1.8802    1.4226   -0.2586 N.am      1 UNK         0.0000 
     13 C13        -1.2405    2.7061   -0.5309 C.3       1 UNK         0.0000 
     14 H14        -1.5526    3.3457    0.2970 H         1 UNK         0.0000 
     15 C15         0.2987    2.7479   -0.3444 C.2       1 UNK         0.0000 
     16 O16         0.9206    3.7118   -0.8086 O.2       1 UNK         0.0000 
     17 N17         0.9146    1.7764    0.3648 N.am      1 UNK         0.0000 
     18 C18         2.3767    1.7754    0.5834 C.3       1 UNK         0.0000 
     19 H19         2.6170    2.8249    0.7883 H         1 UNK         0.0000 
     20 C20         3.1710    1.4364   -0.7088 C.2       1 UNK         0.0000 
     21 O21         4.0627    2.1223   -1.1672 O.2       1 UNK         0.0000 
     22 O22         2.7144    0.2796   -1.2451 O.3       1 UNK         0.0000 
     23 C23         2.8667    1.0306    1.8716 C.3       1 UNK         0.0000 
     24 C24         3.2260   -0.4898    1.8379 C.3       1 UNK         0.0000 
     25 C25         2.0729   -1.4961    1.6863 C.2       1 UNK         0.0000 
     26 O26         1.0837   -1.3381    0.9772 O.co2     1 UNK         0.0000 
     27 N27         2.0520   -2.7169    2.2627 N.am      1 UNK         0.0000 
     28 C28         3.1017   -3.3390    3.0631 C.3       1 UNK         0.0000 
     29 O29         1.0133   -3.4713    1.9301 O.co2     1 UNK         0.0000 
     30 C30        -1.7867    3.3926   -1.8243 C.3       1 UNK         0.0000 
     31 C31        -1.9158    2.5185   -3.0980 C.3       1 UNK         0.0000 
     32 C32        -0.5843    2.2275   -3.8127 C.3       1 UNK         0.0000 
     33 C33        -0.7436    1.2362   -4.9884 C.3       1 UNK         0.0000 
     34 N34        -1.0135   -0.1324   -4.5252 N.am      1 UNK         0.0000 
     35 C35        -0.0437   -0.9484   -4.0707 C.2       1 UNK         0.0000 
     36 O36         1.1531   -0.6365   -4.1354 O.2       1 UNK         0.0000 
     37 C37        -0.5201   -2.2744   -3.5062 C.ar      1 UNK         0.0000 
     38 C38        -1.4833   -3.0424   -4.1929 C.ar      1 UNK         0.0000 
     39 C39        -1.9141   -4.2770   -3.6894 C.ar      1 UNK         0.0000 
     40 C40        -1.3720   -4.7827   -2.5062 C.ar      1 UNK         0.0000 
     41 C41        -0.4614   -4.0119   -1.7898 C.ar      1 UNK         0.0000 
     42 O42        -0.0727   -4.3592   -0.6360 O.co2     1 UNK         0.0000 
     43 C43        -0.0747   -2.7590   -2.2654 C.ar      1 UNK         0.0000 
     44 O44         0.5425   -2.0543   -1.4270 O.co2     1 UNK         0.0000 
     45 H45        -4.7204   -3.9555    0.0432 H         1 UNK         0.0000 
     46 H46        -6.3079   -2.1421   -0.5835 H         1 UNK         0.0000 
     47 H47        -5.5647    0.2091   -0.5643 H         1 UNK         0.0000 
     48 H48        -1.3567    0.5419   -0.2167 H         1 UNK         0.0000 
     49 H49         0.4081    0.9417    0.6356 H         1 UNK         0.0000 
     50 H50         2.1833    1.2468    2.6986 H         1 UNK         0.0000 
     51 H51         3.7779    1.5547    2.1688 H         1 UNK         0.0000 
     52 H52         3.9459   -0.6913    1.0500 H         1 UNK         0.0000 
     53 H53         3.7469   -0.7259    2.7659 H         1 UNK         0.0000 
     54 H54         2.8962   -3.1573    4.1180 H         1 UNK         0.0000 
     55 H55         4.0854   -2.9559    2.8124 H         1 UNK         0.0000 
     56 H56         3.1367   -4.4212    2.9073 H         1 UNK         0.0000 
     57 H57        -2.7856    3.7647   -1.5791 H         1 UNK         0.0000 
     58 H58        -1.2173    4.2972   -2.0455 H         1 UNK         0.0000 
     59 H59        -2.4261    1.5828   -2.8555 H         1 UNK         0.0000 
     60 H60        -2.5809    3.0323   -3.7978 H         1 UNK         0.0000 
     61 H61         0.1408    1.8401   -3.0932 H         1 UNK         0.0000 
     62 H62        -0.1521    3.1691   -4.1678 H         1 UNK         0.0000 
     63 H63         0.1536    1.2682   -5.6141 H         1 UNK         0.0000 
     64 H64        -1.5605    1.5432   -5.6396 H         1 UNK         0.0000 
     65 H65        -1.9629   -0.4330   -4.3485 H         1 UNK         0.0000 
     66 H66        -1.9127   -2.6904   -5.1146 H         1 UNK         0.0000 
     67 H67        -2.6820   -4.8469   -4.1900 H         1 UNK         0.0000 
     68 H68        -1.7200   -5.7079   -2.0707 H         1 UNK         0.0000 
     69 H69         2.9493    0.1054   -2.1591 H         1 UNK         0.0000 
@<TRIPOS>BOND
     1    1    2 nc   
     2    1    5 nc   
     3    1   26 nc   
     4    1   29 nc   
     5    1   42 nc   
     6    1   44 nc   
     7    2    3 1    
     8    3    4 ar   
     9    3    9 ar   
    10    4    5 1    
    11    4    6 ar   
    12    6    7 ar   
    13    6   45 1    
    14    7    8 ar   
    15    7   46 1    
    16    8    9 ar   
    17    8   47 1    
    18    9   10 1    
    19   10   11 2    
    20   10   12 am   BACKBONE|DICT|INTERRES
    21   12   13 1    
    22   12   48 1    
    23   13   15 1    
    24   13   14 1    
    25   13   30 1    
    26   15   17 am   BACKBONE|DICT|INTERRES
    27   15   16 2    
    28   17   18 1    
    29   17   49 1    
    30   18   19 1    
    31   18   23 1    
    32   18   20 1    
    33   20   21 2    
    34   20   22 1    
    35   22   69 1    
    36   23   51 1    
    37   23   50 1    
    38   23   24 1    
    39   24   25 1    
    40   24   53 1    
    41   24   52 1    
    42   25   26 2    
    43   25   27 am   BACKBONE|DICT|INTERRES
    44   27   28 1    
    45   27   29 1    
    46   28   54 1    
    47   28   55 1    
    48   28   56 1    
    49   30   57 1    
    50   30   31 1    
    51   30   58 1    
    52   31   59 1    
    53   31   32 1    
    54   31   60 1    
    55   32   61 1    
    56   32   33 1    
    57   32   62 1    
    58   33   34 1    
    59   33   63 1    
    60   33   64 1    
    61   34   35 am   BACKBONE|DICT|INTERRES
    62   34   65 1    
    63   35   37 1    
    64   35   36 2    
    65   37   43 ar   
    66   37   38 ar   
    67   38   39 ar   
    68   38   66 1    
    69   39   40 ar   
    70   39   67 1    
    71   40   68 1    
    72   40   41 ar   
    73   41   42 1    
    74   41   43 ar   
    75   43   44 1    
@<TRIPOS>SUBSTRUCTURE
     1 UNK         1 GROUP             0       ****    0 ROOT    
