@<TRIPOS>MOLECULE
217_c1
71   80    1
SMALL
USER_CHARGES


@<TRIPOS>ATOM
      1 O1          1.6748   -0.3043    2.9298 O.co2     1 UNK         0.0000 
      2 C2          0.8114    0.2888    3.6753 C.2       1 UNK         0.0000 
      3 O3         -0.0997    0.9820    3.1691 O.co2     1 UNK         0.0000 
      4 C4          0.7917    0.1678    5.2551 C.3       1 UNK         0.0000 
      5 H5          0.1646   -0.6944    5.4924 H         1 UNK         0.0000 
      6 C6          0.1707    1.3777    5.9936 C.3       1 UNK         0.0000 
      7 S7          1.5652    2.4083    6.5309 S.3       1 UNK         0.0000 
      8 C8          2.8269    1.2013    6.0131 C.3       1 UNK         0.0000 
      9 H9          3.5803    1.1410    6.7984 H         1 UNK         0.0000 
     10 N10         2.1264   -0.0580    5.8451 N.3       1 UNK         0.0000 
     11 C11         2.1550   -0.8939    7.0452 C.3       1 UNK         0.0000 
     12 C12         3.5095    1.5883    4.6877 C.3       1 UNK         0.0000 
     13 H13         2.7219    1.9035    3.9961 H         1 UNK         0.0000 
     14 N14         4.2352    0.4719    4.0369 N.pl3     1 UNK         0.0000 
     15 C15         5.4328    0.8903    3.8295 C.2       1 UNK         0.0000 
     16 S16         6.0187    2.2135    4.9103 S.3       1 UNK         0.0000 
     17 C17         4.3778    2.8553    4.8123 C.3       1 UNK         0.0000 
     18 C18         6.2595    0.4833    2.6737 C.ar      1 UNK         0.0000 
     19 C19         5.6800   -0.1096    1.5057 C.ar      1 UNK         0.0000 
     20 O20         4.4636   -0.5535    1.4360 O.co2     1 UNK         0.0000 
     21 C21         6.4704   -0.2374    0.3605 C.ar      1 UNK         0.0000 
     22 C22         7.8034    0.1850    0.3397 C.ar      1 UNK         0.0000 
     23 C23         8.3799    0.7301    1.4799 C.ar      1 UNK         0.0000 
     24 C24         7.6196    0.8739    2.6364 C.ar      1 UNK         0.0000 
     25 H25        -0.3446    1.0443    6.9005 H         1 UNK         0.0000 
     26 H26        -0.5380    1.9658    5.4096 H         1 UNK         0.0000 
     27 H27         3.1457   -1.3536    7.1313 H         1 UNK         0.0000 
     28 H28         1.4304   -1.7043    6.9614 H         1 UNK         0.0000 
     29 H29         1.9339   -0.3248    7.9524 H         1 UNK         0.0000 
     30 H30         4.3441    3.4750    3.9046 H         1 UNK         0.0000 
     31 H31         4.1596    3.4860    5.6806 H         1 UNK         0.0000 
     32 H32         6.0328   -0.6827   -0.5249 H         1 UNK         0.0000 
     33 H33         8.3804    0.1044   -0.5703 H         1 UNK         0.0000 
     34 H34         9.3988    1.0981    1.4465 H         1 UNK         0.0000 
     35 H35         8.1052    1.3661    3.4773 H         1 UNK         0.0000 
     36 H36         2.7465   -6.2915    1.4293 H         1 UNK         0.0000 
     37 O37         1.1306   -3.8892    5.6135 O.co2     1 UNK         0.0000 
     38 H38         1.9436   -4.7069    2.7678 H         1 UNK         0.0000 
     39 C39         2.2748   -5.4746    0.8673 C.3       1 UNK         0.0000 
     40 H40        -0.7595   -5.0012    4.4183 H         1 UNK         0.0000 
     41 C41         1.9493   -4.2688    1.7635 C.3       1 UNK         0.0000 
     42 S42         3.4941   -4.8726   -0.2502 S.3       1 UNK         0.0000 
     43 C43         1.2307   -3.1109    4.6353 C.2       1 UNK         0.0000 
     44 S44        -0.7343   -4.9634    2.0061 S.3       1 UNK         0.0000 
     45 H45         1.4225   -5.8711    0.3095 H         1 UNK         0.0000 
     46 C46        -0.9593   -4.2455    3.6594 C.3       1 UNK         0.0000 
     47 O47         2.2867   -2.4026    4.4674 O.co2     1 UNK         0.0000 
     48 N48         3.0275   -3.2483    1.7640 N.pl3     1 UNK         0.0000 
     49 C49         3.9853   -3.7289    1.0512 C.2       1 UNK         0.0000 
     50 C50         0.5196   -3.7381    1.5197 C.3       1 UNK         0.0000 
     51 C51        -0.0515   -2.9883    3.7228 C.3       1 UNK         0.0000 
     52 N52         0.2364   -2.5710    2.3341 N.3       1 UNK         0.0000 
     53 C53         5.4292   -3.5209    1.3190 C.ar      1 UNK         0.0000 
     54 O54         5.1762   -2.4382    3.4517 O.co2     1 UNK         0.0000 
     55 H55        -2.0144   -3.9592    3.7466 H         1 UNK         0.0000 
     56 C56         5.9151   -3.0154    2.5657 C.ar      1 UNK         0.0000 
     57 C57         6.3703   -4.0124    0.3835 C.ar      1 UNK         0.0000 
     58 C58         7.2786   -3.1138    2.8516 C.ar      1 UNK         0.0000 
     59 C59         7.7273   -4.0695    0.6813 C.ar      1 UNK         0.0000 
     60 C60         8.1810   -3.6380    1.9214 C.ar      1 UNK         0.0000 
     61 H61         6.0691   -4.4156   -0.5800 H         1 UNK         0.0000 
     62 H62         7.6433   -2.7602    3.8099 H         1 UNK         0.0000 
     63 H63         0.3923   -3.5199    0.4591 H         1 UNK         0.0000 
     64 H64         8.4188   -4.5051   -0.0300 H         1 UNK         0.0000 
     65 H65        -0.6503   -2.2063    4.1960 H         1 UNK         0.0000 
     66 H66         9.2271   -3.7241    2.1705 H         1 UNK         0.0000 
     67 C67        -0.8196   -1.7438    1.7409 C.3       1 UNK         0.0000 
     68 H68        -0.3996   -1.1538    0.9215 H         1 UNK         0.0000 
     69 H69        -1.2181   -1.0423    2.4725 H         1 UNK         0.0000 
     70 H70        -1.6616   -2.3365    1.3746 H         1 UNK         0.0000 
     71 Fe71        3.4730   -1.4193    3.0116 Fe        1 UNK         0.0000 
@<TRIPOS>BOND
     1    1    2 1    
     2    1   71 nc   
     3    2    3 2    
     4    2    4 1    
     5    4    6 1    
     6    4   10 1    
     7    4    5 1    
     8    6    7 1    
     9    6   25 1    
    10    6   26 1    
    11    7    8 1    
    12    8    9 1    
    13    8   10 1    
    14    8   12 1    
    15   10   11 1    
    16   11   27 1    
    17   11   28 1    
    18   11   29 1    
    19   12   14 1    
    20   12   17 1    
    21   12   13 1    
    22   14   15 2    
    23   14   71 nc   
    24   15   16 1    
    25   15   18 1    
    26   16   17 1    
    27   17   30 1    
    28   17   31 1    
    29   18   19 ar   
    30   18   24 ar   
    31   19   20 1    
    32   19   21 ar   
    33   20   71 nc   
    34   21   22 ar   
    35   21   32 1    
    36   22   23 ar   
    37   22   33 1    
    38   23   24 ar   
    39   23   34 1    
    40   24   35 1    
    41   36   39 1    
    42   37   43 2    
    43   38   41 1    
    44   39   45 1    
    45   39   41 1    
    46   39   42 1    
    47   40   46 1    
    48   41   48 1    
    49   41   50 1    
    50   42   49 1    
    51   43   47 1    
    52   43   51 1    
    53   44   50 1    
    54   44   46 1    
    55   46   55 1    
    56   46   51 1    
    57   47   71 nc   
    58   48   49 2    
    59   48   71 nc   
    60   49   53 1    
    61   50   63 1    
    62   50   52 1    
    63   51   52 1    
    64   51   65 1    
    65   52   67 1    
    66   53   56 ar   
    67   53   57 ar   
    68   54   56 1    
    69   54   71 nc   
    70   56   58 ar   
    71   57   61 1    
    72   57   59 ar   
    73   58   60 ar   
    74   58   62 1    
    75   59   64 1    
    76   59   60 ar   
    77   60   66 1    
    78   67   68 1    
    79   67   69 1    
    80   67   70 1    
@<TRIPOS>SUBSTRUCTURE
     1 UNK         1 GROUP             0       ****    0 ROOT    
