@<TRIPOS>MOLECULE
011_r4_c1
86   95    1
SMALL
USER_CHARGES


@<TRIPOS>ATOM
      1 Fe1         0.0000    0.0000    0.0000 Fe        1 UNK         0.0000 
      2 C2         -2.0600    8.0791    0.6072 C.ar      1 UNK         0.0000 
      3 N3         -3.1774    8.4932   -0.0233 N.2       1 UNK         0.0000 
      4 C4         -3.7897    7.3968   -0.4841 C.ar      1 UNK         0.0000 
      5 N5         -3.1039    6.2839   -0.1602 N.pl3     1 UNK         0.0000 
      6 H6         -3.3886    5.3172   -0.3851 H         1 UNK         0.0000 
      7 C7         -2.0103    6.6927    0.5105 C.ar      1 UNK         0.0000 
      8 C8         -0.9395    5.8009    1.0952 C.3       1 UNK         0.0000 
      9 C9         -0.2121    4.9307    0.0589 C.3       1 UNK         0.0000 
     10 N10         0.8277    4.1011    0.6658 N.am      1 UNK         0.0000 
     11 O11         1.8881    4.6919    1.2542 O.3       1 UNK         0.0000 
     12 C12         2.5361    3.6553    1.9773 C.3       1 UNK         0.0000 
     13 H13         3.6244    3.8619    2.0334 H         1 UNK         0.0000 
     14 C14         2.0152    3.6931    3.4083 C.3       1 UNK         0.0000 
     15 C15         2.2608    2.3430    1.1922 C.3       1 UNK         0.0000 
     16 H16         2.9726    2.3600    0.3384 H         1 UNK         0.0000 
     17 C17         0.9017    2.7419    0.6228 C.2       1 UNK         0.0000 
     18 O18         0.0471    2.0202    0.0673 O.co2     1 UNK         0.0000 
     19 N19         2.3988    1.0379    1.9049 N.am      1 UNK         0.0000 
     20 C20         2.2875   -0.1302    1.1793 C.2       1 UNK         0.0000 
     21 O21         2.0800    0.0000    0.0000 O.co2     1 UNK         0.0000 
     22 C22         1.9549   -1.5106    1.7401 C.ar      1 UNK         0.0000 
     23 C23         0.9843   -2.3826    1.0791 C.ar      1 UNK         0.0000 
     24 O24         0.3013   -2.0202   -0.0673 O.co2     1 UNK         0.0000 
     25 C25         0.6180   -3.5982    1.6808 C.ar      1 UNK         0.0000 
     26 O26        -0.2707   -4.4080    1.0650 O.3       1 UNK         0.0000 
     27 C27         1.1403   -3.9474    2.9301 C.ar      1 UNK         0.0000 
     28 C28         2.0342   -3.0987    3.5811 C.ar      1 UNK         0.0000 
     29 C29         2.4451   -1.9051    2.9805 C.ar      1 UNK         0.0000 
     30 H30        -1.3558    8.7168    1.1001 H         1 UNK         0.0000 
     31 H31        -0.2016    6.4260    1.6421 H         1 UNK         0.0000 
     32 H32        -1.4233    5.1401    1.8136 H         1 UNK         0.0000 
     33 H33        -0.9482    4.3087   -0.4532 H         1 UNK         0.0000 
     34 H34         0.2623    5.5975   -0.6955 H         1 UNK         0.0000 
     35 H35         1.0005    3.2939    3.4463 H         1 UNK         0.0000 
     36 H36         2.6754    3.0928    4.0568 H         1 UNK         0.0000 
     37 H37         2.0043    4.7351    3.7991 H         1 UNK         0.0000 
     38 H38         2.4558    1.0097    2.9322 H         1 UNK         0.0000 
     39 H39        -0.5427   -5.2600    1.4378 H         1 UNK         0.0000 
     40 H40         0.8304   -4.8688    3.4115 H         1 UNK         0.0000 
     41 H41         2.4003   -3.3609    4.5648 H         1 UNK         0.0000 
     42 H42         3.1239   -1.2590    3.4879 H         1 UNK         0.0000 
     43 C43         2.0602    0.5509    8.0789 C.ar      1 UNK         0.0000 
     44 N44         3.1872   -0.0672    8.4852 N.2       1 UNK         0.0000 
     45 C45         3.8057   -0.4798    7.3670 C.ar      1 UNK         0.0000 
     46 N46         3.1142   -0.1385    6.2656 N.pl3     1 UNK         0.0000 
     47 H47         3.4006   -0.3242    5.2913 H         1 UNK         0.0000 
     48 C48         2.0089    0.4982    6.6976 C.ar      1 UNK         0.0000 
     49 C49         0.9263    1.0832    5.8152 C.3       1 UNK         0.0000 
     50 C50         0.2131    0.0472    4.9309 C.3       1 UNK         0.0000 
     51 N51        -0.8283    0.6491    4.1038 N.am      1 UNK         0.0000 
     52 O52        -1.8927    1.2350    4.6964 O.3       1 UNK         0.0000 
     53 C53        -2.5395    1.9635    3.6619 C.3       1 UNK         0.0000 
     54 H54        -3.6287    2.0163    3.8675 H         1 UNK         0.0000 
     55 C55        -2.0221    3.3957    3.7063 C.3       1 UNK         0.0000 
     56 C56        -2.2617    1.1855    2.3462 C.3       1 UNK         0.0000 
     57 H57        -2.9714    0.3301    2.3594 H         1 UNK         0.0000 
     58 C58        -0.9018    0.6175    2.7455 C.2       1 UNK         0.0000 
     59 O59        -0.0471    0.0673    2.0202 O.co2     1 UNK         0.0000 
     60 N60        -2.3986    1.9017    1.0426 N.3       1 UNK         0.0000 
     61 C61        -2.2872    1.1794   -0.1281 C.3       1 UNK         0.0000 
     62 O62        -2.0800    0.0000    0.0000 O.co2     1 UNK         0.0000 
     63 C63        -1.9523    1.7413   -1.5075 C.ar      1 UNK         0.0000 
     64 C64        -0.9818    1.0809   -2.3807 C.ar      1 UNK         0.0000 
     65 O65        -0.3013   -0.0673   -2.0202 O.co2     1 UNK         0.0000 
     66 C66        -0.6113    1.6859   -3.5935 C.ar      1 UNK         0.0000 
     67 O67         0.2748    1.0705   -4.4060 O.3       1 UNK         0.0000 
     68 C68        -1.1271    2.9408   -3.9365 C.ar      1 UNK         0.0000 
     69 C69        -2.0205    3.5901   -3.0864 C.ar      1 UNK         0.0000 
     70 C70        -2.4370    2.9841   -1.8978 C.ar      1 UNK         0.0000 
     71 H71         1.3369    1.0098    8.7364 H         1 UNK         0.0000 
     72 H72         0.1798    1.6044    6.4501 H         1 UNK         0.0000 
     73 H73         1.3968    1.8221    5.1658 H         1 UNK         0.0000 
     74 H74         0.9553   -0.4534    4.3057 H         1 UNK         0.0000 
     75 H75        -0.2563   -0.7172    5.5885 H         1 UNK         0.0000 
     76 H76        -1.0100    3.4401    3.3016 H         1 UNK         0.0000 
     77 H77        -2.6869    4.0454    3.1116 H         1 UNK         0.0000 
     78 H78        -2.0079    3.7842    4.7499 H         1 UNK         0.0000 
     79 H79        -2.4524    2.9294    1.0174 H         1 UNK         0.0000 
     80 H80         0.5447    1.4446   -5.2580 H         1 UNK         0.0000 
     81 H81        -0.8125    3.4257   -4.8536 H         1 UNK         0.0000 
     82 H82        -2.3807    4.5780   -3.3434 H         1 UNK         0.0000 
     83 H83        -3.1151    3.4881   -1.2483 H         1 UNK         0.0000 
     84 H84        -3.3589    1.0857   -0.3034 H         1 UNK         0.0000 
     85 H85         4.7417   -1.0145    7.4335 H         1 UNK         0.0000 
     86 H86        -4.7136    7.4860   -1.0362 H         1 UNK         0.0000 
@<TRIPOS>BOND
     1    1   18 nc   
     2    1   21 nc   
     3    1   24 nc   
     4    1   59 nc   
     5    1   62 nc   
     6    1   65 nc   
     7    2   30 1    
     8    2    3 ar   
     9    2    7 ar   
    10    3    4 ar   
    11    4    5 ar   
    12    4   86 1    
    13    5    7 ar   
    14    5    6 1    
    15    7    8 1    
    16    8   31 1    
    17    8   32 1    
    18    8    9 1    
    19    9   10 1    
    20    9   33 1    
    21    9   34 1    
    22   10   11 1    
    23   10   17 am   BACKBONE|DICT|INTERRES
    24   11   12 1    
    25   12   13 1    
    26   12   14 1    
    27   12   15 1    
    28   14   35 1    
    29   14   37 1    
    30   14   36 1    
    31   15   16 1    
    32   15   19 1    
    33   15   17 1    
    34   17   18 2    
    35   19   38 1    
    36   19   20 am   BACKBONE|DICT|INTERRES
    37   20   21 2    
    38   20   22 1    
    39   22   29 ar   
    40   22   23 ar   
    41   23   25 ar   
    42   23   24 1    
    43   25   27 ar   
    44   25   26 1    
    45   26   39 1    
    46   27   40 1    
    47   27   28 ar   
    48   28   41 1    
    49   28   29 ar   
    50   29   42 1    
    51   43   44 ar   
    52   43   71 1    
    53   43   48 ar   
    54   44   45 ar   
    55   45   46 ar   
    56   45   85 1    
    57   46   48 ar   
    58   46   47 1    
    59   48   49 1    
    60   49   72 1    
    61   49   50 1    
    62   49   73 1    
    63   50   75 1    
    64   50   51 1    
    65   50   74 1    
    66   51   52 1    
    67   51   58 am   BACKBONE|DICT|INTERRES
    68   52   53 1    
    69   53   55 1    
    70   53   54 1    
    71   53   56 1    
    72   55   78 1    
    73   55   76 1    
    74   55   77 1    
    75   56   57 1    
    76   56   58 1    
    77   56   60 1    
    78   58   59 2    
    79   60   61 1    
    80   60   79 1    
    81   61   63 1    
    82   61   62 1    
    83   61   84 1    
    84   63   64 ar   
    85   63   70 ar   
    86   64   65 1    
    87   64   66 ar   
    88   66   67 1    
    89   66   68 ar   
    90   67   80 1    
    91   68   69 ar   
    92   68   81 1    
    93   69   70 ar   
    94   69   82 1    
    95   70   83 1    
@<TRIPOS>SUBSTRUCTURE
     1 UNK         1 GROUP             0       ****    0 ROOT    
