@<TRIPOS>MOLECULE
052_c1
104   111    1
SMALL
USER_CHARGES


@<TRIPOS>ATOM
      1 O1         -1.2345   -0.9633   -4.4204 O.co2     1 UNK         0.0000 
      2 C2         -0.1964   -1.6485   -4.6531 C.ar      1 UNK         0.0000 
      3 C3          0.5939   -1.9368   -3.5404 C.ar      1 UNK         0.0000 
      4 C4          0.2797   -1.8827   -5.9608 C.ar      1 UNK         0.0000 
      5 O5         -0.3779   -1.4934   -7.0071 O.co2     1 UNK         0.0000 
      6 C6          1.6300   -2.2315   -6.1105 C.ar      1 UNK         0.0000 
      7 C7          2.4998   -2.1583   -5.0074 C.ar      1 UNK         0.0000 
      8 C8          1.9648   -2.1660   -3.7097 C.ar      1 UNK         0.0000 
      9 C9          3.9251   -1.6367   -5.1983 C.3       1 UNK         0.0000 
     10 C10         4.1537   -0.5415   -4.1016 C.3       1 UNK         0.0000 
     11 H11         3.2287    0.0458   -4.0825 H         1 UNK         0.0000 
     12 C12         4.1826   -1.2297   -2.7181 C.3       1 UNK         0.0000 
     13 N13         2.9195   -2.1515   -2.5187 N.4       1 UNK         0.0000 
     14 C14         3.4134   -3.6079   -2.3270 C.3       1 UNK         0.0000 
     15 C15         2.2618   -1.7184   -1.1778 C.3       1 UNK         0.0000 
     16 N16         5.1399    0.5284   -4.3636 N.am      1 UNK         0.0000 
     17 C17         4.9765    1.7568   -3.8117 C.2       1 UNK         0.0000 
     18 O18         4.3839    1.8945   -2.7409 O.2       1 UNK         0.0000 
     19 C19         5.3404    2.9900   -4.6933 C.3       1 UNK         0.0000 
     20 H20         6.3685    2.8656   -5.0229 H         1 UNK         0.0000 
     21 C21         5.2426    4.3572   -3.9622 C.3       1 UNK         0.0000 
     22 O22         6.3048    4.5222   -3.0388 O.3       1 UNK         0.0000 
     23 N23         4.4964    2.9874   -5.9010 N.am      1 UNK         0.0000 
     24 C24         3.1507    3.0983   -5.8851 C.2       1 UNK         0.0000 
     25 O25         2.5206    3.7097   -5.0249 O.2       1 UNK         0.0000 
     26 C26         2.4197    2.2582   -6.9575 C.3       1 UNK         0.0000 
     27 H27         3.2302    1.6795   -7.3938 H         1 UNK         0.0000 
     28 C28         1.4633    1.1435   -6.4221 C.3       1 UNK         0.0000 
     29 O29         0.1119    1.4428   -6.1642 O.co2     1 UNK         0.0000 
     30 N30         1.9402    2.9459   -8.1436 N.am      1 UNK         0.0000 
     31 C31         0.7614    3.5606   -8.3122 C.2       1 UNK         0.0000 
     32 O32         0.1541    4.2588   -7.5147 O.2       1 UNK         0.0000 
     33 C33         0.0964    3.1345   -9.6287 C.3       1 UNK         0.0000 
     34 H34         0.6235    2.2871  -10.0776 H         1 UNK         0.0000 
     35 C35         0.2565    4.3698  -10.5564 C.3       1 UNK         0.0000 
     36 H36        -0.1419    5.2628  -10.0638 H         1 UNK         0.0000 
     37 O37        -0.5238    4.1495  -11.7191 O.3       1 UNK         0.0000 
     38 C38         1.7158    4.6565  -10.9675 C.3       1 UNK         0.0000 
     39 N39        -1.3155    2.7325   -9.5198 N.am      1 UNK         0.0000 
     40 C40        -2.0188    2.1973   -8.4807 C.2       1 UNK         0.0000 
     41 O41        -1.7651    0.9056   -7.9936 O.2       1 UNK         0.0000 
     42 C42        -3.3273    2.8711   -8.0413 C.3       1 UNK         0.0000 
     43 C43        -4.5390    1.9512   -7.7757 C.3       1 UNK         0.0000 
     44 H44        -4.2911    1.1284   -7.1456 H         1 UNK         0.0000 
     45 O45        -4.9347    1.3794   -8.9928 O.3       1 UNK         0.0000 
     46 C46        -5.6703    2.6476   -7.0274 C.3       1 UNK         0.0000 
     47 C47        -5.3348    2.9284   -5.5365 C.3       1 UNK         0.0000 
     48 H48        -4.5141    3.6427   -5.4485 H         1 UNK         0.0000 
     49 O49        -6.4803    3.6002   -5.0409 O.3       1 UNK         0.0000 
     50 C50        -5.0589    1.6683   -4.6240 C.3       1 UNK         0.0000 
     51 H51        -5.3173    2.0135   -3.6199 H         1 UNK         0.0000 
     52 N52        -6.0456    0.6011   -4.7971 N.am      1 UNK         0.0000 
     53 O53        -2.5861    1.5631   -5.3627 O.3       1 UNK         0.0000 
     54 C54        -3.5742    1.2449   -4.3534 C.3       1 UNK         0.0000 
     55 C55        -5.0853   -1.6829   -5.2817 C.ar      1 UNK         0.0000 
     56 C56        -3.8612   -1.7997   -5.9953 C.ar      1 UNK         0.0000 
     57 O57        -3.3139   -0.8703   -6.6609 O.co2     1 UNK         0.0000 
     58 C58        -3.1385   -2.9977   -5.9258 C.ar      1 UNK         0.0000 
     59 C59        -3.5674   -4.0641   -5.1451 C.ar      1 UNK         0.0000 
     60 C60        -4.7400   -3.9513   -4.4154 C.ar      1 UNK         0.0000 
     61 C61        -5.4966   -2.7832   -4.4980 C.ar      1 UNK         0.0000 
     62 H62         0.1526   -1.7425   -2.5703 H         1 UNK         0.0000 
     63 H63         2.0332   -2.2322   -7.1148 H         1 UNK         0.0000 
     64 H64         3.9735   -1.1404   -6.1700 H         1 UNK         0.0000 
     65 H65         4.7360   -2.3663   -5.2481 H         1 UNK         0.0000 
     66 H66         4.2004   -0.4799   -1.9257 H         1 UNK         0.0000 
     67 H67         5.0849   -1.8291   -2.6039 H         1 UNK         0.0000 
     68 H68         3.9428   -3.9179   -3.2314 H         1 UNK         0.0000 
     69 H69         2.5395   -4.2458   -2.1592 H         1 UNK         0.0000 
     70 H70         4.0809   -3.6375   -1.4597 H         1 UNK         0.0000 
     71 H71         1.8828   -0.7012   -1.3097 H         1 UNK         0.0000 
     72 H72         3.0231   -1.7477   -0.3905 H         1 UNK         0.0000 
     73 H73         1.4548   -2.4181   -0.9378 H         1 UNK         0.0000 
     74 H74         5.7318    0.4391   -5.1757 H         1 UNK         0.0000 
     75 H75         4.2918    4.4795   -3.4293 H         1 UNK         0.0000 
     76 H76         5.2922    5.1789   -4.6832 H         1 UNK         0.0000 
     77 H77         6.0609    5.2177   -2.4175 H         1 UNK         0.0000 
     78 H78         4.9376    2.6091   -6.7196 H         1 UNK         0.0000 
     79 H79         1.9286    0.6791   -5.5657 H         1 UNK         0.0000 
     80 H80         1.5251    0.3529   -7.1808 H         1 UNK         0.0000 
     81 H81         2.3637    2.5989   -8.9876 H         1 UNK         0.0000 
     82 H82        -0.3555    4.8590  -12.3500 H         1 UNK         0.0000 
     83 H83         1.7811    5.4720  -11.6845 H         1 UNK         0.0000 
     84 H84         2.1830    3.7733  -11.4077 H         1 UNK         0.0000 
     85 H85         2.3267    4.9519  -10.1132 H         1 UNK         0.0000 
     86 H86        -1.8142    3.3520  -10.1581 H         1 UNK         0.0000 
     87 H87        -3.6134    3.6036   -8.7946 H         1 UNK         0.0000 
     88 H88        -3.0572    3.4427   -7.1556 H         1 UNK         0.0000 
     89 H89        -6.5583    2.0169   -7.0632 H         1 UNK         0.0000 
     90 H90        -5.9410    3.5656   -7.5519 H         1 UNK         0.0000 
     91 H91        -6.6558    4.3935   -5.5582 H         1 UNK         0.0000 
     92 H92        -3.2235    1.8243   -3.4955 H         1 UNK         0.0000 
     93 H93        -3.5189    0.1971   -4.0229 H         1 UNK         0.0000 
     94 H94        -2.2183   -3.1405   -6.4730 H         1 UNK         0.0000 
     95 H95        -2.9836   -4.9713   -5.1195 H         1 UNK         0.0000 
     96 H96        -5.0839   -4.7829   -3.8203 H         1 UNK         0.0000 
     97 H97        -6.4313   -2.7421   -3.9556 H         1 UNK         0.0000 
     98 Fe98       -1.4961   -0.0207   -6.2099 Fe        1 UNK         0.0000 
     99 H99        -5.7219    0.8338   -8.8412 H         1 UNK         0.0000 
    100 C100       -6.0973   -0.5651   -5.4567 C.2       1 UNK         0.0000 
    101 O101       -7.1436   -0.8022   -6.0486 O.2       1 UNK         0.0000 
    102 H102       -6.9845    0.9564   -4.7225 H         1 UNK         0.0000 
    103 H103       -2.3483    0.4224   -8.6225 H         1 UNK         0.0000 
    104 H104       -2.1543    2.3816   -5.0163 H         1 UNK         0.0000 
@<TRIPOS>BOND
     1    1    2 1    
     2    1   98 nc   
     3    2    3 ar   
     4    2    4 ar   
     5    3    8 ar   
     6    3   62 1    
     7    4    5 1    
     8    4    6 ar   
     9    5   98 nc   
    10    6    7 ar   
    11    6   63 1    
    12    7    8 ar   
    13    7    9 1    
    14    8   13 1    
    15    9   10 1    
    16    9   64 1    
    17    9   65 1    
    18   10   11 1    
    19   10   12 1    
    20   10   16 1    
    21   12   13 1    
    22   12   66 1    
    23   12   67 1    
    24   13   14 1    
    25   13   15 1    
    26   14   68 1    
    27   14   69 1    
    28   14   70 1    
    29   15   71 1    
    30   15   72 1    
    31   15   73 1    
    32   16   17 am   BACKBONE|DICT|INTERRES
    33   16   74 1    
    34   17   18 2    
    35   17   19 1    
    36   19   21 1    
    37   19   23 1    
    38   19   20 1    
    39   21   22 1    
    40   21   75 1    
    41   21   76 1    
    42   22   77 1    
    43   23   24 am   BACKBONE|DICT|INTERRES
    44   23   78 1    
    45   24   25 2    
    46   24   26 1    
    47   26   27 1    
    48   26   28 1    
    49   26   30 1    
    50   28   29 1    
    51   28   79 1    
    52   28   80 1    
    53   29   98 nc   
    54   30   31 am   BACKBONE|DICT|INTERRES
    55   30   81 1    
    56   31   32 2    
    57   31   33 1    
    58   33   39 1    
    59   33   34 1    
    60   33   35 1    
    61   35   37 1    
    62   35   38 1    
    63   35   36 1    
    64   37   82 1    
    65   38   83 1    
    66   38   84 1    
    67   38   85 1    
    68   39   40 am   BACKBONE|DICT|INTERRES
    69   39   86 1    
    70   40   41 2    
    71   40   42 1    
    72   41  103 1    
    73   41   98 nc   
    74   42   87 1    
    75   42   88 1    
    76   42   43 1    
    77   43   45 1    
    78   43   46 1    
    79   43   44 1    
    80   45   99 1    
    81   46   47 1    
    82   46   89 1    
    83   46   90 1    
    84   47   48 1    
    85   47   49 1    
    86   47   50 1    
    87   49   91 1    
    88   50   51 1    
    89   50   52 1    
    90   50   54 1    
    91   52  102 1    
    92   52  100 am   BACKBONE|DICT|INTERRES
    93   53   54 1    
    94   53  104 1    
    95   53   98 nc   
    96   54   92 1    
    97   54   93 1    
    98   55   56 ar   
    99   55   61 ar   
   100   55  100 1    
   101   56   57 1    
   102   56   58 ar   
   103   57   98 nc   
   104   58   59 ar   
   105   58   94 1    
   106   59   60 ar   
   107   59   95 1    
   108   60   61 ar   
   109   60   96 1    
   110   61   97 1    
   111  100  101 2    
@<TRIPOS>SUBSTRUCTURE
     1 UNK         1 GROUP             0       ****    0 ROOT    
