@<TRIPOS>MOLECULE
079_c1
42   47    1
SMALL
USER_CHARGES


@<TRIPOS>ATOM
      1 O1          1.3291    0.8192    0.0639 O.co2     1 UNK         0.0000 
      2 C2          2.5167    0.8037    0.4282 C.2       1 UNK         0.0000 
      3 O3          2.9833    1.6332    1.2715 O.co2     1 UNK         0.0000 
      4 C4          3.4904   -0.1775   -0.2946 C.3       1 UNK         0.0000 
      5 C5          5.0256   -0.0801    0.0392 C.3       1 UNK         0.0000 
      6 O6          5.3403    1.2979   -0.0046 O.co2     1 UNK         0.0000 
      7 C7          5.2219   -0.6103    1.5357 C.2       1 UNK         0.0000 
      8 O8          5.7934   -1.6976    1.7433 O.co2     1 UNK         0.0000 
      9 O9          5.3281    0.3549    2.3507 O.co2     1 UNK         0.0000 
     10 C10         5.9014   -0.9226   -1.0005 C.3       1 UNK         0.0000 
     11 C11         7.3131   -0.4116   -1.4529 C.2       1 UNK         0.0000 
     12 O12         7.8332    0.6369   -0.9348 O.co2     1 UNK         0.0000 
     13 O13         7.9072   -1.0994   -2.3070 O.co2     1 UNK         0.0000 
     14 H14         3.3591    0.0213   -1.3561 H         1 UNK         0.0000 
     15 H15         3.1071   -1.1853   -0.1569 H         1 UNK         0.0000 
     16 H16         5.3300   -1.0895   -1.9178 H         1 UNK         0.0000 
     17 H17         6.0553   -1.9440   -0.6481 H         1 UNK         0.0000 
     18 O18         6.7968    3.7959    0.1504 O.co2     1 UNK         0.0000 
     19 O19         6.6867    5.9226    0.7823 O.co2     1 UNK         0.0000 
     20 C20         6.9332    4.7282    1.0044 C.2       1 UNK         0.0000 
     21 H21         6.6918    4.9260    4.4911 H         1 UNK         0.0000 
     22 H22         8.7492    3.8820    3.8892 H         1 UNK         0.0000 
     23 C23         7.0990    4.1196    2.4716 C.3       1 UNK         0.0000 
     24 C24         6.2410    4.9824    3.5013 C.3       1 UNK         0.0000 
     25 O25         4.2473    3.5860    3.1407 O.co2     1 UNK         0.0000 
     26 C26         8.6337    4.1999    2.8520 C.3       1 UNK         0.0000 
     27 C27         4.7340    4.6196    3.7078 C.2       1 UNK         0.0000 
     28 O28         6.6663    2.7650    2.5091 O.co2     1 UNK         0.0000 
     29 C29         9.6808    3.3668    2.0391 C.2       1 UNK         0.0000 
     30 O30        10.8633    3.4586    2.4061 O.co2     1 UNK         0.0000 
     31 O31         9.2800    2.5855    1.1212 O.co2     1 UNK         0.0000 
     32 O32         4.0688    5.3821    4.4317 O.co2     1 UNK         0.0000 
     33 H33         6.2833    6.0472    3.2737 H         1 UNK         0.0000 
     34 H34         8.9682    5.2411    2.8445 H         1 UNK         0.0000 
     35 Fe35        7.2969    1.8081    0.7681 Fe        1 UNK         0.0000 
     36 Fe36        5.0737    2.3563    1.5420 Fe        1 UNK         0.0000 
     37 O37         7.9751    0.0332    2.0284 O.3       1 UNK         0.0000 
     38 H38         8.2903   -0.0176    2.9887 H         1 UNK         0.0000 
     39 H39         7.5965   -0.8817    1.7823 H         1 UNK         0.0000 
     40 O40         4.1618    4.0221    0.2235 O.3       1 UNK         0.0000 
     41 H41         4.0861    4.9622    0.5936 H         1 UNK         0.0000 
     42 H42         3.7041    4.0011   -0.6739 H         1 UNK         0.0000 
@<TRIPOS>BOND
     1    1    2 2    
     2    2    3 1    
     3    2    4 1    
     4    3   36 nc   
     5    4    5 1    
     6    4   14 1    
     7    4   15 1    
     8    5    6 1    
     9    5    7 1    
    10    5   10 1    
    11    6   35 nc   
    12    7    8 2    
    13    7    9 1    
    14    9   36 nc   
    15   10   11 1    
    16   10   16 1    
    17   10   17 1    
    18   11   12 1    
    19   11   13 2    
    20   12   35 nc   
    21   18   20 1    
    22   18   35 nc   
    23   19   20 2    
    24   20   23 1    
    25   21   24 1    
    26   22   26 1    
    27   23   28 1    
    28   23   24 1    
    29   23   26 1    
    30   24   27 1    
    31   24   33 1    
    32   25   27 1    
    33   25   36 nc   
    34   26   34 1    
    35   26   29 1    
    36   27   32 2    
    37   28   35 nc   
    38   29   30 2    
    39   29   31 1    
    40   31   35 nc   
    41   35   37 nc   
    42   35   36 nc   
    43   36   40 nc   
    44   37   38 1    
    45   37   39 1    
    46   40   41 1    
    47   40   42 1    
@<TRIPOS>SUBSTRUCTURE
     1 UNK         1 GROUP             0       ****    0 ROOT    
