@<TRIPOS>MOLECULE
220_c2
73   81    1
SMALL
USER_CHARGES


@<TRIPOS>ATOM
      1 Fe1         0.0859   -0.0257   -0.0363 Fe        1 UNK         0.0000 
      2 C2          6.8297    2.7888   -0.2470 C.3       1 UNK         0.0000 
      3 O3          6.1519    4.0180    0.0123 O.3       1 UNK         0.0000 
      4 C4          4.7705    4.0962    0.0776 C.ar      1 UNK         0.0000 
      5 C5          3.9277    2.9715    0.0530 C.ar      1 UNK         0.0000 
      6 C6          2.5449    3.1317    0.0693 C.ar      1 UNK         0.0000 
      7 C7          1.6384    1.9613   -0.0128 C.2       1 UNK         0.0000 
      8 O8          0.3590    2.1296   -0.0234 O.co2     1 UNK         0.0000 
      9 O9          2.1110    0.7797   -0.0648 O.co2     1 UNK         0.0000 
     10 N10         1.9634    4.3453    0.1506 N.ar      1 UNK         0.0000 
     11 C11         2.7238    5.4642    0.2121 C.ar      1 UNK         0.0000 
     12 C12         4.1505    5.3953    0.1773 C.ar      1 UNK         0.0000 
     13 C13         2.0642    6.7251    0.3154 C.ar      1 UNK         0.0000 
     14 O14         0.6923    6.8176    0.3551 O.3       1 UNK         0.0000 
     15 C15         2.8167    7.8953    0.3779 C.ar      1 UNK         0.0000 
     16 C16         4.2057    7.8456    0.3418 C.ar      1 UNK         0.0000 
     17 C17         4.8740    6.6252    0.2420 C.ar      1 UNK         0.0000 
     18 H18         6.2380    1.9414   -0.5856 H         1 UNK         0.0000 
     19 H19         7.3905    2.4863    0.6331 H         1 UNK         0.0000 
     20 H20         7.5668    2.9601   -1.0259 H         1 UNK         0.0000 
     21 H21         4.2843    1.9507    0.0196 H         1 UNK         0.0000 
     22 H22         0.3512    7.7095    0.4197 H         1 UNK         0.0000 
     23 H23         2.3416    8.8636    0.4568 H         1 UNK         0.0000 
     24 H24         4.7563    8.7718    0.3940 H         1 UNK         0.0000 
     25 H25         5.9528    6.6262    0.2206 H         1 UNK         0.0000 
     26 C26        -0.2832   -2.6883    6.8309 C.3       1 UNK         0.0000 
     27 O27        -0.0300   -3.9225    6.1621 O.3       1 UNK         0.0000 
     28 C28         0.0382   -4.0136    4.7813 C.ar      1 UNK         0.0000 
     29 C29         0.0257   -2.9012    3.9169 C.ar      1 UNK         0.0000 
     30 C30         0.0717   -3.0871    2.5366 C.ar      1 UNK         0.0000 
     31 C31         0.0765   -1.9467    1.5849 C.2       1 UNK         0.0000 
     32 O32         0.1465   -2.1618    0.3126 O.co2     1 UNK         0.0000 
     33 O33         0.0615   -0.7467    2.0235 O.co2     1 UNK         0.0000 
     34 N34         0.1396   -4.3129    1.9816 N.ar      1 UNK         0.0000 
     35 C35         0.1821   -5.4170    2.7607 C.ar      1 UNK         0.0000 
     36 C36         0.1352   -5.3251    4.1847 C.ar      1 UNK         0.0000 
     37 C37         0.2907   -6.6868    2.1179 C.ar      1 UNK         0.0000 
     38 O38         0.3626   -6.7924    0.7466 O.3       1 UNK         0.0000 
     39 C39         0.3362   -7.8467    2.8893 C.ar      1 UNK         0.0000 
     40 C40         0.2867   -7.7759    4.2776 C.ar      1 UNK         0.0000 
     41 C41         0.1888   -6.5448    4.9281 C.ar      1 UNK         0.0000 
     42 H42        -0.6096   -1.8392    6.2339 H         1 UNK         0.0000 
     43 H43         0.5934   -2.3930    7.4013 H         1 UNK         0.0000 
     44 H44        -1.0648   -2.8561    7.5663 H         1 UNK         0.0000 
     45 H45        -0.0104   -1.8738    4.2566 H         1 UNK         0.0000 
     46 H46         0.3836   -7.6884    0.4113 H         1 UNK         0.0000 
     47 H47         0.4137   -8.8216    2.4283 H         1 UNK         0.0000 
     48 H48         0.3241   -8.6935    4.8420 H         1 UNK         0.0000 
     49 H49         0.1601   -6.5251    6.0065 H         1 UNK         0.0000 
     50 C50        -2.6148   -0.2978   -6.8500 C.3       1 UNK         0.0000 
     51 O51        -3.8512   -0.0453   -6.1850 O.3       1 UNK         0.0000 
     52 C52        -3.9426    0.0310   -4.8034 C.ar      1 UNK         0.0000 
     53 C53        -2.8335    0.0226   -3.9385 C.ar      1 UNK         0.0000 
     54 C54        -3.0140    0.0495   -2.5579 C.ar      1 UNK         0.0000 
     55 C55        -1.8604   -0.0088   -1.6201 C.2       1 UNK         0.0000 
     56 O56        -2.0607    0.0046   -0.3447 O.co2     1 UNK         0.0000 
     57 O57        -0.6665   -0.0731   -2.0831 O.co2     1 UNK         0.0000 
     58 N58        -4.2434    0.1195   -2.0011 N.ar      1 UNK         0.0000 
     59 C59        -5.3497    0.1653   -2.7847 C.ar      1 UNK         0.0000 
     60 C60        -5.2536    0.1226   -4.2094 C.ar      1 UNK         0.0000 
     61 C61        -6.6310    0.2593   -2.1557 C.ar      1 UNK         0.0000 
     62 O62        -6.7606    0.3009   -0.7866 O.3       1 UNK         0.0000 
     63 C63        -7.7856    0.3066   -2.9364 C.ar      1 UNK         0.0000 
     64 C64        -7.7049    0.2595   -4.3234 C.ar      1 UNK         0.0000 
     65 C65        -6.4683    0.1677   -4.9633 C.ar      1 UNK         0.0000 
     66 H66        -1.7701   -0.6251   -6.2478 H         1 UNK         0.0000 
     67 H67        -2.3167    0.5831   -7.4131 H         1 UNK         0.0000 
     68 H68        -2.7741   -1.0821   -7.5853 H         1 UNK         0.0000 
     69 H69        -1.8106   -0.0067   -4.2865 H         1 UNK         0.0000 
     70 H70        -7.6606    0.3730   -0.4706 H         1 UNK         0.0000 
     71 H71        -8.7657    0.3757   -2.4838 H         1 UNK         0.0000 
     72 H72        -8.6180    0.2899   -4.8949 H         1 UNK         0.0000 
     73 H73        -6.4391    0.1321   -6.0422 H         1 UNK         0.0000 
@<TRIPOS>BOND
     1    1    8 nc   
     2    1    9 nc   
     3    1   32 nc   
     4    1   33 nc   
     5    1   56 nc   
     6    1   57 nc   
     7    2    3 1    
     8    2   19 1    
     9    2   18 1    
    10    2   20 1    
    11    3    4 1    
    12    4   12 ar   
    13    4    5 ar   
    14    5    6 ar   
    15    5   21 1    
    16    6   10 ar   
    17    6    7 1    
    18    7    8 2    
    19    7    9 1    
    20   10   11 ar   
    21   11   13 ar   
    22   11   12 ar   
    23   12   17 ar   
    24   13   14 1    
    25   13   15 ar   
    26   14   22 1    
    27   15   23 1    
    28   15   16 ar   
    29   16   24 1    
    30   16   17 ar   
    31   17   25 1    
    32   26   43 1    
    33   26   44 1    
    34   26   27 1    
    35   26   42 1    
    36   27   28 1    
    37   28   29 ar   
    38   28   36 ar   
    39   29   45 1    
    40   29   30 ar   
    41   30   31 1    
    42   30   34 ar   
    43   31   33 1    
    44   31   32 2    
    45   34   35 ar   
    46   35   36 ar   
    47   35   37 ar   
    48   36   41 ar   
    49   37   39 ar   
    50   37   38 1    
    51   38   46 1    
    52   39   40 ar   
    53   39   47 1    
    54   40   48 1    
    55   40   41 ar   
    56   41   49 1    
    57   50   66 1    
    58   50   51 1    
    59   50   67 1    
    60   50   68 1    
    61   51   52 1    
    62   52   60 ar   
    63   52   53 ar   
    64   53   54 ar   
    65   53   69 1    
    66   54   58 ar   
    67   54   55 1    
    68   55   56 1    
    69   55   57 2    
    70   58   59 ar   
    71   59   61 ar   
    72   59   60 ar   
    73   60   65 ar   
    74   61   62 1    
    75   61   63 ar   
    76   62   70 1    
    77   63   71 1    
    78   63   64 ar   
    79   64   65 ar   
    80   64   72 1    
    81   65   73 1    
@<TRIPOS>SUBSTRUCTURE
     1 UNK         1 GROUP             0       ****    0 ROOT    
