@<TRIPOS>MOLECULE
114_c1
92   98    1
SMALL
USER_CHARGES


@<TRIPOS>ATOM
      1 C1          4.7801  -21.1373    9.7173 C.ar      1 UNK         0.0000 
      2 C2          5.6727  -22.1917    9.5235 C.ar      1 UNK         0.0000 
      3 C3          6.6156  -22.1148    8.5081 C.ar      1 UNK         0.0000 
      4 C4          6.7576  -20.9623    7.7537 C.ar      1 UNK         0.0000 
      5 O5          7.6056  -21.0449    6.8073 O.co2     1 UNK         0.0000 
      6 C6          5.9573  -19.8182    8.0493 C.ar      1 UNK         0.0000 
      7 O7          6.2282  -18.6526    7.5837 O.co2     1 UNK         0.0000 
      8 C8          4.8602  -19.9607    8.9548 C.ar      1 UNK         0.0000 
      9 C9          3.7705  -18.9113    9.1384 C.2       1 UNK         0.0000 
     10 O10         3.0824  -18.8529   10.1653 O.2       1 UNK         0.0000 
     11 N11         3.5517  -18.0759    8.1127 N.am      1 UNK         0.0000 
     12 C12         3.8818  -16.6591    8.2837 C.3       1 UNK         0.0000 
     13 H13         4.7508  -16.6516    8.9506 H         1 UNK         0.0000 
     14 C14         2.7138  -15.9243    8.9915 C.3       1 UNK         0.0000 
     15 C15         3.1361  -14.6836    9.8002 C.3       1 UNK         0.0000 
     16 C16         2.1289  -14.3171   10.9076 C.3       1 UNK         0.0000 
     17 C17         0.6711  -14.2177   10.4317 C.3       1 UNK         0.0000 
     18 N18         0.5607  -13.3681    9.2320 N.4       1 UNK         0.0000 
     19 H19         0.8603  -12.4281    9.4463 H         1 UNK         0.0000 
     20 H20         1.1684  -13.7511    8.5180 H         1 UNK         0.0000 
     21 H21        -0.3918  -13.3567    8.8961 H         1 UNK         0.0000 
     22 C22         4.4276  -15.9178    7.0232 C.2       1 UNK         0.0000 
     23 O23         4.9856  -14.8307    7.1996 O.2       1 UNK         0.0000 
     24 N24         4.3167  -16.4294    5.7957 N.am      1 UNK         0.0000 
     25 C25         3.0504  -16.8161    5.1356 C.3       1 UNK         0.0000 
     26 H26         2.2535  -16.8226    5.8811 H         1 UNK         0.0000 
     27 C27         3.0011  -18.2991    4.6049 C.2       1 UNK         0.0000 
     28 O28         3.9719  -19.0886    4.8433 O.co2     1 UNK         0.0000 
     29 O29         1.8449  -18.5687    4.1954 O.co2     1 UNK         0.0000 
     30 C30         2.5636  -15.7743    4.0561 C.3       1 UNK         0.0000 
     31 O31         3.4931  -15.5294    2.9937 O.3       1 UNK         0.0000 
     32 C32         4.5056  -14.5870    3.1018 C.2       1 UNK         0.0000 
     33 O33         4.3178  -13.5224    3.7061 O.2       1 UNK         0.0000 
     34 C34         5.8646  -14.9847    2.4189 C.3       1 UNK         0.0000 
     35 H35         5.8573  -14.7489    1.3521 H         1 UNK         0.0000 
     36 C36         6.2063  -16.5065    2.6595 C.3       1 UNK         0.0000 
     37 O37         6.4496  -16.7088    4.0285 O.co2     1 UNK         0.0000 
     38 N38         6.9724  -14.3001    3.1240 N.am      1 UNK         0.0000 
     39 C39         8.1127  -13.7639    2.6704 C.2       1 UNK         0.0000 
     40 O40         8.2006  -12.9950    1.7039 O.2       1 UNK         0.0000 
     41 C41         9.3927  -14.1648    3.4738 C.3       1 UNK         0.0000 
     42 H42        10.2255  -13.6629    2.9855 H         1 UNK         0.0000 
     43 C43         9.3784  -13.7728    4.9794 C.3       1 UNK         0.0000 
     44 C44         9.0015  -12.3113    5.2858 C.3       1 UNK         0.0000 
     45 C45         9.8578  -11.2495    4.5638 C.3       1 UNK         0.0000 
     46 C46        11.3701  -11.3558    4.8176 C.3       1 UNK         0.0000 
     47 N47        11.6611  -11.4760    6.2570 N.4       1 UNK         0.0000 
     48 H48        11.2569  -10.6929    6.7512 H         1 UNK         0.0000 
     49 H49        11.2451  -12.3378    6.5900 H         1 UNK         0.0000 
     50 H50        12.6593  -11.5019    6.4078 H         1 UNK         0.0000 
     51 N51         9.6606  -15.5957    3.3807 N.am      1 UNK         0.0000 
     52 C52        10.8233  -16.2448    3.2642 C.2       1 UNK         0.0000 
     53 O53        11.9201  -15.6755    3.2723 O.2       1 UNK         0.0000 
     54 C54        10.6098  -17.7056    2.8906 C.ar      1 UNK         0.0000 
     55 C55         9.5812  -18.5044    3.4723 C.ar      1 UNK         0.0000 
     56 O56         9.2172  -18.1879    4.6641 O.co2     1 UNK         0.0000 
     57 C57         9.0446  -19.6012    2.7175 C.ar      1 UNK         0.0000 
     58 O58         7.9926  -20.2927    2.9795 O.co2     1 UNK         0.0000 
     59 C59         9.6838  -19.9777    1.5441 C.ar      1 UNK         0.0000 
     60 C60        10.8413  -19.3425    1.1097 C.ar      1 UNK         0.0000 
     61 C61        11.2940  -18.2014    1.7707 C.ar      1 UNK         0.0000 
     62 H62         4.0021  -21.2387   10.4684 H         1 UNK         0.0000 
     63 H63         5.6211  -23.0860   10.1244 H         1 UNK         0.0000 
     64 H64         7.2620  -22.9611    8.3139 H         1 UNK         0.0000 
     65 H65         4.0118  -18.4388    7.2828 H         1 UNK         0.0000 
     66 H66         2.2511  -16.6087    9.7012 H         1 UNK         0.0000 
     67 H67         1.9346  -15.7011    8.2642 H         1 UNK         0.0000 
     68 H68         3.3084  -13.8446    9.1250 H         1 UNK         0.0000 
     69 H69         4.1060  -14.8747   10.2660 H         1 UNK         0.0000 
     70 H70         2.4370  -13.3821   11.3776 H         1 UNK         0.0000 
     71 H71         2.1951  -15.0696   11.6979 H         1 UNK         0.0000 
     72 H72         0.0401  -13.8279   11.2317 H         1 UNK         0.0000 
     73 H73         0.2893  -15.2135   10.1955 H         1 UNK         0.0000 
     74 H74         5.0771  -16.2230    5.1329 H         1 UNK         0.0000 
     75 H75         2.3083  -14.8422    4.5504 H         1 UNK         0.0000 
     76 H76         1.6404  -16.1288    3.5932 H         1 UNK         0.0000 
     77 H77         5.4010  -17.1276    2.2543 H         1 UNK         0.0000 
     78 H78         7.0613  -16.7720    2.0331 H         1 UNK         0.0000 
     79 H79         7.1211  -14.9616    3.8958 H         1 UNK         0.0000 
     80 H80        10.3540  -14.0076    5.4079 H         1 UNK         0.0000 
     81 H81         8.6865  -14.4293    5.5141 H         1 UNK         0.0000 
     82 H82         9.0123  -12.1571    6.3651 H         1 UNK         0.0000 
     83 H83         7.9568  -12.1676    5.0017 H         1 UNK         0.0000 
     84 H84         9.5003  -10.2582    4.8467 H         1 UNK         0.0000 
     85 H85         9.6767  -11.3107    3.4881 H         1 UNK         0.0000 
     86 H86        11.8761  -10.4790    4.4080 H         1 UNK         0.0000 
     87 H87        11.7841  -12.2258    4.3033 H         1 UNK         0.0000 
     88 H88         8.8941  -16.2601    3.5275 H         1 UNK         0.0000 
     89 H89         9.2821  -20.7956    0.9667 H         1 UNK         0.0000 
     90 H90        11.3363  -19.7015    0.2214 H         1 UNK         0.0000 
     91 H91        12.1287  -17.6460    1.3527 H         1 UNK         0.0000 
     92 Fe92        6.8481  -19.2232    5.1013 Fe        1 UNK         0.0000 
@<TRIPOS>BOND
     1    1    2 ar   
     2    1    8 ar   
     3    1   62 1    
     4    2    3 ar   
     5    2   63 1    
     6    3    4 ar   
     7    3   64 1    
     8    4    5 1    
     9    4    6 ar   
    10    5   92 nc   
    11    6    7 1    
    12    6    8 ar   
    13    7   92 nc   
    14    8    9 1    
    15    9   10 2    
    16    9   11 am   BACKBONE|DICT|INTERRES
    17   11   65 1    
    18   11   12 1    
    19   12   14 1    
    20   12   22 1    
    21   12   13 1    
    22   14   15 1    
    23   14   66 1    
    24   14   67 1    
    25   15   16 1    
    26   15   68 1    
    27   15   69 1    
    28   16   17 1    
    29   16   70 1    
    30   16   71 1    
    31   17   18 1    
    32   17   72 1    
    33   17   73 1    
    34   18   19 1    
    35   18   20 1    
    36   18   21 1    
    37   22   23 2    
    38   22   24 am   BACKBONE|DICT|INTERRES
    39   24   74 1    
    40   24   25 1    
    41   25   27 1    
    42   25   30 1    
    43   25   26 1    
    44   27   28 1    
    45   27   29 2    
    46   28   92 nc   
    47   30   31 1    
    48   30   75 1    
    49   30   76 1    
    50   31   32 1    
    51   32   33 2    
    52   32   34 1    
    53   34   36 1    
    54   34   38 1    
    55   34   35 1    
    56   36   37 1    
    57   36   77 1    
    58   36   78 1    
    59   37   92 nc   
    60   38   39 am   BACKBONE|DICT|INTERRES
    61   38   79 1    
    62   39   40 2    
    63   39   41 1    
    64   41   42 1    
    65   41   43 1    
    66   41   51 1    
    67   43   44 1    
    68   43   80 1    
    69   43   81 1    
    70   44   45 1    
    71   44   82 1    
    72   44   83 1    
    73   45   46 1    
    74   45   84 1    
    75   45   85 1    
    76   46   47 1    
    77   46   86 1    
    78   46   87 1    
    79   47   48 1    
    80   47   49 1    
    81   47   50 1    
    82   51   52 am   BACKBONE|DICT|INTERRES
    83   51   88 1    
    84   52   53 2    
    85   52   54 1    
    86   54   55 ar   
    87   54   61 ar   
    88   55   56 1    
    89   55   57 ar   
    90   56   92 nc   
    91   57   58 1    
    92   57   59 ar   
    93   58   92 nc   
    94   59   60 ar   
    95   59   89 1    
    96   60   61 ar   
    97   60   90 1    
    98   61   91 1    
@<TRIPOS>SUBSTRUCTURE
     1 UNK         1 GROUP             0       ****    0 ROOT    
