@<TRIPOS>MOLECULE
195_c1
86   91    1
SMALL
USER_CHARGES


@<TRIPOS>ATOM
      1 Fe1         0.1521   -0.5647   -1.5775 Fe        1 UNK         0.0000 
      2 O2          1.5554    0.5968   -2.3771 O.co2     1 UNK         0.0000 
      3 C3          1.2886    1.7428   -2.7262 C.2       1 UNK         0.0000 
      4 C4          2.3767    2.7972   -2.8959 C.3       1 UNK         0.0000 
      5 N5         -0.0215    1.9915   -2.8752 N.am      1 UNK         0.0000 
      6 O6         -0.9019    1.0008   -2.7606 O.co2     1 UNK         0.0000 
      7 C7         -0.5954    3.3432   -2.9306 C.3       1 UNK         0.0000 
      8 C8         -1.1214    3.7798   -1.5461 C.3       1 UNK         0.0000 
      9 C9         -1.6256    5.2394   -1.4982 C.3       1 UNK         0.0000 
     10 C10        -1.9599    5.7831   -0.0802 C.3       1 UNK         0.0000 
     11 H11        -2.3290    6.7989   -0.2238 H         1 UNK         0.0000 
     12 N12        -0.7811    5.9069    0.8007 N.am      1 UNK         0.0000 
     13 C13        -0.6494    5.4104    2.0411 C.2       1 UNK         0.0000 
     14 O14         0.3974    5.5967    2.6510 O.2       1 UNK         0.0000 
     15 C15        -3.2171    5.0538    0.4905 C.2       1 UNK         0.0000 
     16 O16        -4.2956    4.9584   -0.0798 O.2       1 UNK         0.0000 
     17 N17        -3.0721    4.5236    1.7152 N.am      1 UNK         0.0000 
     18 C18        -1.8776    4.6066    2.5792 C.3       1 UNK         0.0000 
     19 H19        -2.1782    5.1775    3.4579 H         1 UNK         0.0000 
     20 C20        -1.4003    3.2200    3.0883 C.3       1 UNK         0.0000 
     21 C21        -0.8536    2.3117    1.9623 C.3       1 UNK         0.0000 
     22 C22        -0.5294    0.8720    2.4038 C.3       1 UNK         0.0000 
     23 N23        -0.0561    0.0035    1.3017 N.am      1 UNK         0.0000 
     24 O24        -0.7836    0.0472    0.1949 O.co2     1 UNK         0.0000 
     25 C25         1.1146   -0.6806    1.2299 C.2       1 UNK         0.0000 
     26 O26         1.3918   -1.0746    0.0942 O.co2     1 UNK         0.0000 
     27 C27         1.9904   -0.9127    2.3484 C.2       1 UNK         0.0000 
     28 C28         1.6698   -1.4976    3.5254 C.2       1 UNK         0.0000 
     29 C29         2.7743   -1.7971    4.5236 C.3       1 UNK         0.0000 
     30 C30         0.2682   -1.9274    3.9506 C.3       1 UNK         0.0000 
     31 C31         0.0321   -3.4312    4.0019 C.3       1 UNK         0.0000 
     32 O32         0.2849   -4.0390    2.7353 O.3       1 UNK         0.0000 
     33 C33        -0.0014   -5.3497    2.5846 C.2       1 UNK         0.0000 
     34 O34        -0.4960   -6.0384    3.4852 O.2       1 UNK         0.0000 
     35 C35         0.5443   -5.9312    1.2605 C.3       1 UNK         0.0000 
     36 H36         1.6245   -5.9357    1.4215 H         1 UNK         0.0000 
     37 N37         0.2179   -7.3720    1.0915 N.am      1 UNK         0.0000 
     38 C38        -0.9914   -7.9596    1.1101 C.2       1 UNK         0.0000 
     39 O39        -2.0466   -7.3485    1.2273 O.2       1 UNK         0.0000 
     40 C40        -1.0165   -9.4735    0.9666 C.3       1 UNK         0.0000 
     41 C41         0.3574   -5.0878   -0.0420 C.3       1 UNK         0.0000 
     42 C42        -1.0675   -4.9165   -0.6396 C.3       1 UNK         0.0000 
     43 C43        -1.1045   -4.4235   -2.1102 C.3       1 UNK         0.0000 
     44 N44        -0.4658   -3.1122   -2.3199 N.am      1 UNK         0.0000 
     45 O45        -1.1554   -2.0462   -1.9164 O.co2     1 UNK         0.0000 
     46 C46         0.8187   -2.9064   -2.6604 C.2       1 UNK         0.0000 
     47 O47         1.1340   -1.7346   -2.4601 O.co2     1 UNK         0.0000 
     48 C48         1.8140   -3.9661   -3.1184 C.3       1 UNK         0.0000 
     49 H49         3.3644    2.3432   -2.8443 H         1 UNK         0.0000 
     50 H50         2.2821    3.2801   -3.8652 H         1 UNK         0.0000 
     51 H51         2.3244    3.5514   -2.1157 H         1 UNK         0.0000 
     52 H52        -1.4023    3.3733   -3.6715 H         1 UNK         0.0000 
     53 H53         0.1281    4.0905   -3.2735 H         1 UNK         0.0000 
     54 H54        -0.3190    3.6553   -0.8177 H         1 UNK         0.0000 
     55 H55        -1.9283    3.1079   -1.2416 H         1 UNK         0.0000 
     56 H56        -0.8654    5.8876   -1.9352 H         1 UNK         0.0000 
     57 H57        -2.4916    5.3427   -2.1564 H         1 UNK         0.0000 
     58 H58         0.0298    6.3804    0.4429 H         1 UNK         0.0000 
     59 H59        -3.8639    3.9985    2.0496 H         1 UNK         0.0000 
     60 H60        -0.6462    3.3390    3.8715 H         1 UNK         0.0000 
     61 H61        -2.2391    2.7208    3.5788 H         1 UNK         0.0000 
     62 H62         0.0483    2.7518    1.5375 H         1 UNK         0.0000 
     63 H63        -1.6003    2.2619    1.1656 H         1 UNK         0.0000 
     64 H64         0.1738    0.9098    3.2391 H         1 UNK         0.0000 
     65 H65        -1.4400    0.4408    2.8318 H         1 UNK         0.0000 
     66 H66         3.0084   -0.6157    2.1494 H         1 UNK         0.0000 
     67 H67         3.4593   -2.5271    4.0911 H         1 UNK         0.0000 
     68 H68         3.3400   -0.9027    4.7821 H         1 UNK         0.0000 
     69 H69         2.3781   -2.2292    5.4406 H         1 UNK         0.0000 
     70 H70        -0.4969   -1.5403    3.2893 H         1 UNK         0.0000 
     71 H71         0.0572   -1.4831    4.9224 H         1 UNK         0.0000 
     72 H72        -1.0049   -3.5981    4.2967 H         1 UNK         0.0000 
     73 H73         0.6428   -3.8815    4.7853 H         1 UNK         0.0000 
     74 H74         1.0183   -7.9744    0.9988 H         1 UNK         0.0000 
     75 H75        -0.0076   -9.8789    0.8904 H         1 UNK         0.0000 
     76 H76        -1.5062   -9.9153    1.8347 H         1 UNK         0.0000 
     77 H77        -1.5835   -9.7566    0.0792 H         1 UNK         0.0000 
     78 H78         0.7924   -4.0971    0.1032 H         1 UNK         0.0000 
     79 H79         0.9674   -5.5775   -0.7999 H         1 UNK         0.0000 
     80 H80        -1.6750   -4.2662   -0.0050 H         1 UNK         0.0000 
     81 H81        -1.5742   -5.8783   -0.6466 H         1 UNK         0.0000 
     82 H82        -0.6390   -5.1896   -2.7303 H         1 UNK         0.0000 
     83 H83        -2.1398   -4.3686   -2.4480 H         1 UNK         0.0000 
     84 H84         2.6577   -3.9625   -2.4368 H         1 UNK         0.0000 
     85 H85         1.3903   -4.9617   -3.1300 H         1 UNK         0.0000 
     86 H86         2.1879   -3.7352   -4.1110 H         1 UNK         0.0000 
@<TRIPOS>BOND
     1    1    2 nc   
     2    1    6 nc   
     3    1   24 nc   
     4    1   26 nc   
     5    1   45 nc   
     6    1   47 nc   
     7    2    3 2    
     8    3    4 1    
     9    3    5 am   BACKBONE|DICT|INTERRES
    10    4   49 1    
    11    4   51 1    
    12    4   50 1    
    13    5    6 1    
    14    5    7 1    
    15    7    8 1    
    16    7   52 1    
    17    7   53 1    
    18    8   55 1    
    19    8   54 1    
    20    8    9 1    
    21    9   10 1    
    22    9   56 1    
    23    9   57 1    
    24   10   11 1    
    25   10   15 1    
    26   10   12 1    
    27   12   13 am   BACKBONE|DICT|INTERRES
    28   12   58 1    
    29   13   18 1    
    30   13   14 2    
    31   15   17 am   BACKBONE|DICT|INTERRES
    32   15   16 2    
    33   17   59 1    
    34   17   18 1    
    35   18   20 1    
    36   18   19 1    
    37   20   61 1    
    38   20   60 1    
    39   20   21 1    
    40   21   22 1    
    41   21   62 1    
    42   21   63 1    
    43   22   65 1    
    44   22   64 1    
    45   22   23 1    
    46   23   24 1    
    47   23   25 am   BACKBONE|DICT|INTERRES
    48   25   26 2    
    49   25   27 1    
    50   27   28 2    
    51   27   66 1    
    52   28   30 1    
    53   28   29 1    
    54   29   68 1    
    55   29   69 1    
    56   29   67 1    
    57   30   31 1    
    58   30   71 1    
    59   30   70 1    
    60   31   72 1    
    61   31   73 1    
    62   31   32 1    
    63   32   33 1    
    64   33   34 2    
    65   33   35 1    
    66   35   36 1    
    67   35   37 1    
    68   35   41 1    
    69   37   38 am   BACKBONE|DICT|INTERRES
    70   37   74 1    
    71   38   39 2    
    72   38   40 1    
    73   40   76 1    
    74   40   75 1    
    75   40   77 1    
    76   41   78 1    
    77   41   42 1    
    78   41   79 1    
    79   42   80 1    
    80   42   43 1    
    81   42   81 1    
    82   43   44 1    
    83   43   82 1    
    84   43   83 1    
    85   44   45 1    
    86   44   46 am   BACKBONE|DICT|INTERRES
    87   46   48 1    
    88   46   47 2    
    89   48   84 1    
    90   48   85 1    
    91   48   86 1    
@<TRIPOS>SUBSTRUCTURE
     1 UNK         1 GROUP             0       ****    0 ROOT    
