@<TRIPOS>MOLECULE
013_c1
96   101    1
SMALL
USER_CHARGES


@<TRIPOS>ATOM
      1 Fe1         0.4064   -0.8070    0.1851 Fe        1 UNK         0.0000 
      2 C2          3.3720    1.5818   -3.9884 C.ar      1 UNK         0.0000 
      3 C3          3.5670    1.9449   -5.3242 C.ar      1 UNK         0.0000 
      4 C4          3.4959    3.2883   -5.7023 C.ar      1 UNK         0.0000 
      5 C5          3.2309    4.2712   -4.7448 C.ar      1 UNK         0.0000 
      6 C6          3.0352    3.9129   -3.4078 C.ar      1 UNK         0.0000 
      7 C7          3.1011    2.5634   -3.0195 C.ar      1 UNK         0.0000 
      8 C8          2.8919    2.1712   -1.5813 C.3       1 UNK         0.0000 
      9 C9          1.7308    1.2253   -1.4243 C.2       1 UNK         0.0000 
     10 O10         1.8164    0.0940   -1.0027 O.co2     1 UNK         0.0000 
     11 N11         0.4875    1.4344   -1.6897 N.am      1 UNK         0.0000 
     12 O12        -0.0924    0.3020   -1.3068 O.co2     1 UNK         0.0000 
     13 C13        -0.1811    2.6203   -2.1926 C.3       1 UNK         0.0000 
     14 C14        -0.4529    3.6293   -1.0730 C.3       1 UNK         0.0000 
     15 C15        -1.5379    3.1089   -0.1184 C.3       1 UNK         0.0000 
     16 C16        -1.8061    4.1010    1.0171 C.3       1 UNK         0.0000 
     17 C17        -3.0072    3.6849    1.8765 C.3       1 UNK         0.0000 
     18 N18        -2.8222    2.3608    2.4500 N.am      1 UNK         0.0000 
     19 C19        -3.7169    1.3387    2.2705 C.2       1 UNK         0.0000 
     20 O20        -4.7268    1.5220    1.6058 O.2       1 UNK         0.0000 
     21 C21        -3.5448   -0.0375    2.8961 C.3       1 UNK         0.0000 
     22 C22        -2.2337   -0.2702    3.6611 C.3       1 UNK         0.0000 
     23 C23        -1.0323   -0.3011    2.7465 C.2       1 UNK         0.0000 
     24 O24        -1.0661   -0.2801    1.5394 O.co2     1 UNK         0.0000 
     25 N25         0.2010   -0.3993    3.0996 N.am      1 UNK         0.0000 
     26 O26         0.8903   -0.4062    1.9626 O.co2     1 UNK         0.0000 
     27 C27         0.7560   -0.5338    4.4270 C.3       1 UNK         0.0000 
     28 C28         1.4498   -1.8825    4.5143 C.3       1 UNK         0.0000 
     29 C29         1.9884   -2.1485    5.9168 C.3       1 UNK         0.0000 
     30 C30         2.7735   -3.4630    6.0132 C.3       1 UNK         0.0000 
     31 C31         1.9544   -4.7511    5.7704 C.3       1 UNK         0.0000 
     32 N32         1.4580   -4.9280    4.4082 N.am      1 UNK         0.0000 
     33 C33         2.2739   -5.0299    3.3212 C.2       1 UNK         0.0000 
     34 O34         3.4845   -4.9153    3.4472 O.2       1 UNK         0.0000 
     35 C35         1.7311   -5.3956    1.9568 C.3       1 UNK         0.0000 
     36 C36         2.1149   -4.4104    0.8314 C.3       1 UNK         0.0000 
     37 C37         1.0407   -3.4406    0.3914 C.2       1 UNK         0.0000 
     38 O38         1.0596   -2.2121    0.3162 O.co2     1 UNK         0.0000 
     39 N39        -0.0596   -3.6445   -0.1157 N.am      1 UNK         0.0000 
     40 O40        -0.1696   -2.3395   -0.3980 O.co2     1 UNK         0.0000 
     41 C41        -0.9445   -4.7646   -0.3867 C.3       1 UNK         0.0000 
     42 C42        -0.3244   -5.8071   -1.3149 C.3       1 UNK         0.0000 
     43 C43        -1.3524   -6.9084   -1.6053 C.3       1 UNK         0.0000 
     44 C44        -0.7854   -7.9821   -2.5359 C.3       1 UNK         0.0000 
     45 C45        -1.8380   -9.0641   -2.8150 C.3       1 UNK         0.0000 
     46 N46        -1.3062  -10.0945   -3.7051 N.4       1 UNK         0.0000 
     47 H47        -1.0298   -9.6700   -4.6199 H         1 UNK         0.0000 
     48 H48        -2.0462  -10.8135   -3.8746 H         1 UNK         0.0000 
     49 H49        -0.4785  -10.5568   -3.2639 H         1 UNK         0.0000 
     50 H50         3.4302    0.5372   -3.7081 H         1 UNK         0.0000 
     51 H51         3.7733    1.1845   -6.0660 H         1 UNK         0.0000 
     52 H52         3.6469    3.5678   -6.7368 H         1 UNK         0.0000 
     53 H53         3.1769    5.3114   -5.0387 H         1 UNK         0.0000 
     54 H54         2.8299    4.6864   -2.6781 H         1 UNK         0.0000 
     55 H55         2.7145    3.0624   -0.9432 H         1 UNK         0.0000 
     56 H56         3.8176    1.6755   -1.2172 H         1 UNK         0.0000 
     57 H57         0.4323    3.0746   -2.9953 H         1 UNK         0.0000 
     58 H58        -1.1477    2.3373   -2.6634 H         1 UNK         0.0000 
     59 H59         0.4886    3.8569   -0.5300 H         1 UNK         0.0000 
     60 H60        -0.8266    4.5703   -1.5329 H         1 UNK         0.0000 
     61 H61        -1.2290    2.1369    0.3197 H         1 UNK         0.0000 
     62 H62        -2.4736    2.9575   -0.7010 H         1 UNK         0.0000 
     63 H63        -0.8955    4.1820    1.6503 H         1 UNK         0.0000 
     64 H64        -2.0290    5.1054    0.5946 H         1 UNK         0.0000 
     65 H65        -3.9272    3.7388    1.2551 H         1 UNK         0.0000 
     66 H66        -3.1183    4.4223    2.7004 H         1 UNK         0.0000 
     67 H67        -1.9849    2.2298    3.0322 H         1 UNK         0.0000 
     68 H68        -4.3916   -0.1825    3.6011 H         1 UNK         0.0000 
     69 H69        -3.6282   -0.8139    2.1041 H         1 UNK         0.0000 
     70 H70        -2.1231    0.5158    4.4378 H         1 UNK         0.0000 
     71 H71        -2.2801   -1.2504    4.1820 H         1 UNK         0.0000 
     72 H72         1.4735    0.2928    4.6197 H         1 UNK         0.0000 
     73 H73        -0.0469   -0.4865    5.1938 H         1 UNK         0.0000 
     74 H74         2.2813   -1.9153    3.7758 H         1 UNK         0.0000 
     75 H75         0.6931   -2.6460    4.2538 H         1 UNK         0.0000 
     76 H76         2.6828   -1.3233    6.1906 H         1 UNK         0.0000 
     77 H77         1.1514   -2.1557    6.6490 H         1 UNK         0.0000 
     78 H78         3.1643   -3.5205    7.0526 H         1 UNK         0.0000 
     79 H79         3.6564   -3.4184    5.3444 H         1 UNK         0.0000 
     80 H80         1.0993   -4.7676    6.4816 H         1 UNK         0.0000 
     81 H81         2.6059   -5.6187    6.0132 H         1 UNK         0.0000 
     82 H82         0.4415   -5.0455    4.2808 H         1 UNK         0.0000 
     83 H83         0.6438   -5.6155    1.9521 H         1 UNK         0.0000 
     84 H84         2.2434   -6.3562    1.7292 H         1 UNK         0.0000 
     85 H85         3.0710   -3.8962    1.0621 H         1 UNK         0.0000 
     86 H86         2.3113   -5.0115   -0.0808 H         1 UNK         0.0000 
     87 H87        -1.8692   -4.3747   -0.8680 H         1 UNK         0.0000 
     88 H88        -1.2411   -5.2357    0.5737 H         1 UNK         0.0000 
     89 H89        -0.0212   -5.3190   -2.2665 H         1 UNK         0.0000 
     90 H90         0.5675   -6.2594   -0.8347 H         1 UNK         0.0000 
     91 H91        -1.6625   -7.3830   -0.6474 H         1 UNK         0.0000 
     92 H92        -2.2495   -6.4539   -2.0826 H         1 UNK         0.0000 
     93 H93         0.1057   -8.4478   -2.0611 H         1 UNK         0.0000 
     94 H94        -0.4781   -7.5122   -3.4959 H         1 UNK         0.0000 
     95 H95        -2.1521   -9.5343   -1.8561 H         1 UNK         0.0000 
     96 H96        -2.7332   -8.5997   -3.2864 H         1 UNK         0.0000 
@<TRIPOS>BOND
     1    1   10 nc   
     2    1   12 nc   
     3    1   24 nc   
     4    1   26 nc   
     5    1   38 nc   
     6    1   40 nc   
     7    2   50 1    
     8    2    7 ar   
     9    2    3 ar   
    10    3    4 ar   
    11    3   51 1    
    12    4    5 ar   
    13    4   52 1    
    14    5    6 ar   
    15    5   53 1    
    16    6    7 ar   
    17    6   54 1    
    18    7    8 1    
    19    8   56 1    
    20    8   55 1    
    21    8    9 1    
    22    9   10 2    
    23    9   11 am   BACKBONE|DICT|INTERRES
    24   11   12 1    
    25   11   13 1    
    26   13   14 1    
    27   13   57 1    
    28   13   58 1    
    29   14   59 1    
    30   14   15 1    
    31   14   60 1    
    32   15   61 1    
    33   15   16 1    
    34   15   62 1    
    35   16   63 1    
    36   16   17 1    
    37   16   64 1    
    38   17   18 1    
    39   17   66 1    
    40   17   65 1    
    41   18   67 1    
    42   18   19 am   BACKBONE|DICT|INTERRES
    43   19   21 1    
    44   19   20 2    
    45   21   68 1    
    46   21   22 1    
    47   21   69 1    
    48   22   71 1    
    49   22   70 1    
    50   22   23 1    
    51   23   25 am   BACKBONE|DICT|INTERRES
    52   23   24 2    
    53   25   27 1    
    54   25   26 1    
    55   27   28 1    
    56   27   72 1    
    57   27   73 1    
    58   28   29 1    
    59   28   74 1    
    60   28   75 1    
    61   29   30 1    
    62   29   76 1    
    63   29   77 1    
    64   30   78 1    
    65   30   31 1    
    66   30   79 1    
    67   31   81 1    
    68   31   80 1    
    69   31   32 1    
    70   32   33 am   BACKBONE|DICT|INTERRES
    71   32   82 1    
    72   33   34 2    
    73   33   35 1    
    74   35   36 1    
    75   35   83 1    
    76   35   84 1    
    77   36   85 1    
    78   36   37 1    
    79   36   86 1    
    80   37   38 2    
    81   37   39 am   BACKBONE|DICT|INTERRES
    82   39   40 1    
    83   39   41 1    
    84   41   88 1    
    85   41   42 1    
    86   41   87 1    
    87   42   90 1    
    88   42   43 1    
    89   42   89 1    
    90   43   91 1    
    91   43   44 1    
    92   43   92 1    
    93   44   93 1    
    94   44   45 1    
    95   44   94 1    
    96   45   95 1    
    97   45   46 1    
    98   45   96 1    
    99   46   49 1    
   100   46   47 1    
   101   46   48 1    
@<TRIPOS>SUBSTRUCTURE
     1 UNK         1 GROUP             0       ****    0 ROOT    
