@<TRIPOS>MOLECULE
179_C1neg_c1
78   85    1
SMALL
USER_CHARGES


@<TRIPOS>ATOM
      1 Fe1         0.0788    0.4883    0.8375 Fe        1 UNK         0.0000 
      2 O2         -2.0102    0.5071    1.6296 O.co2     1 UNK         0.0000 
      3 N3         -2.2245   -0.7312    2.0844 N.am      1 UNK         0.0000 
      4 C4         -3.5345   -1.1802    2.5439 C.3       1 UNK         0.0000 
      5 C5         -3.6899   -2.7036    2.3449 C.3       1 UNK         0.0000 
      6 C6         -2.4272   -3.5044    2.7164 C.3       1 UNK         0.0000 
      7 C7         -1.0943   -2.8706    2.2063 C.3       1 UNK         0.0000 
      8 H8         -0.3363   -3.2507    2.8957 H         1 UNK         0.0000 
      9 C9         -1.0383   -1.3487    2.3373 C.2       1 UNK         0.0000 
     10 O10         0.0442   -0.8037    2.2862 O.co2     1 UNK         0.0000 
     11 N11        -0.5123   -3.1555    0.8795 N.am      1 UNK         0.0000 
     12 C12        -1.1734   -3.4829   -0.2158 C.2       1 UNK         0.0000 
     13 O13        -2.3857   -3.7567   -0.2567 O.2       1 UNK         0.0000 
     14 C14        -0.3677   -3.9192   -1.4677 C.3       1 UNK         0.0000 
     15 H15        -0.8289   -3.3363   -2.2678 H         1 UNK         0.0000 
     16 N16        -0.8935   -5.3313   -1.6346 N.4       1 UNK         0.0000 
     17 H17        -1.8825   -5.1664   -1.4463 H         1 UNK         0.0000 
     18 H18        -0.7538   -5.6287   -2.5847 H         1 UNK         0.0000 
     19 C19        -0.4124   -6.3694   -0.5896 C.3       1 UNK         0.0000 
     20 C20         1.1918   -3.8432   -1.5762 C.3       1 UNK         0.0000 
     21 C21         1.6772   -3.0066   -2.7885 C.3       1 UNK         0.0000 
     22 C22         1.9249   -1.5127   -2.5000 C.3       1 UNK         0.0000 
     23 N23         0.9351   -0.9228   -1.5910 N.am      1 UNK         0.0000 
     24 O24         1.2178   -1.0436   -0.3009 O.co2     1 UNK         0.0000 
     25 C25        -0.0867   -0.1178   -1.9429 C.2       1 UNK         0.0000 
     26 O26        -0.6564    0.5615   -1.0887 O.co2     1 UNK         0.0000 
     27 C27        -0.6151   -0.1674   -3.3888 C.3       1 UNK         0.0000 
     28 C28        -2.0454    0.3573   -3.5929 C.3       1 UNK         0.0000 
     29 N29        -2.1947    1.7641   -3.2563 N.am      1 UNK         0.0000 
     30 C30        -2.9519    2.6495   -3.9195 C.2       1 UNK         0.0000 
     31 O31        -3.5987    2.3542   -4.9255 O.2       1 UNK         0.0000 
     32 C32        -3.0444    4.0772   -3.3644 C.3       1 UNK         0.0000 
     33 N33        -2.6398    4.0588   -1.9685 N.am      1 UNK         0.0000 
     34 C34        -1.6052    4.7462   -1.4661 C.2       1 UNK         0.0000 
     35 O35        -1.0483    5.6204   -2.1344 O.2       1 UNK         0.0000 
     36 C36        -1.2206    4.4655    0.0166 C.3       1 UNK         0.0000 
     37 H37        -1.8177    5.1733    0.5986 H         1 UNK         0.0000 
     38 N38         0.1660    4.7088    0.2951 N.2       1 UNK         0.0000 
     39 C39         0.6743    3.5735    0.6432 C.2       1 UNK         0.0000 
     40 O40        -0.1899    2.4959    0.6084 O.3       1 UNK         0.0000 
     41 C41        -1.4778    3.0338    0.4827 C.3       1 UNK         0.0000 
     42 C42         2.0905    3.4047    1.0789 C.ar      1 UNK         0.0000 
     43 C43         2.5717    2.2178    1.6745 C.ar      1 UNK         0.0000 
     44 O44         1.8289    1.2083    1.8668 O.co2     1 UNK         0.0000 
     45 C45         3.9039    2.1369    2.0799 C.ar      1 UNK         0.0000 
     46 C46         4.7704    3.2235    1.9223 C.ar      1 UNK         0.0000 
     47 C47         4.3078    4.3989    1.3533 C.ar      1 UNK         0.0000 
     48 C48         2.9825    4.4849    0.9289 C.ar      1 UNK         0.0000 
     49 H49        -3.6402   -0.8827    3.5865 H         1 UNK         0.0000 
     50 H50        -4.2943   -0.6553    1.9613 H         1 UNK         0.0000 
     51 H51        -4.5517   -3.0492    2.9108 H         1 UNK         0.0000 
     52 H52        -3.9670   -2.8738    1.3086 H         1 UNK         0.0000 
     53 H53        -2.5129   -4.5314    2.3650 H         1 UNK         0.0000 
     54 H54        -2.3825   -3.5677    3.8060 H         1 UNK         0.0000 
     55 H55         0.2785   -2.4999    0.6903 H         1 UNK         0.0000 
     56 H56         0.6725   -6.4765   -0.6344 H         1 UNK         0.0000 
     57 H57        -0.9251   -7.2951   -0.8413 H         1 UNK         0.0000 
     58 H58        -0.7284   -6.0236    0.3980 H         1 UNK         0.0000 
     59 H59         1.6165   -4.8296   -1.7263 H         1 UNK         0.0000 
     60 H60         1.6599   -3.4835   -0.6545 H         1 UNK         0.0000 
     61 H61         0.9600   -3.0731   -3.6073 H         1 UNK         0.0000 
     62 H62         2.6023   -3.4079   -3.1911 H         1 UNK         0.0000 
     63 H63         1.9639   -0.9707   -3.4509 H         1 UNK         0.0000 
     64 H64         2.9197   -1.3815   -2.0524 H         1 UNK         0.0000 
     65 H65         0.0532    0.4832   -3.9491 H         1 UNK         0.0000 
     66 H66        -0.5118   -1.1505   -3.8374 H         1 UNK         0.0000 
     67 H67        -2.3770    0.1174   -4.6004 H         1 UNK         0.0000 
     68 H68        -2.7087   -0.2117   -2.9371 H         1 UNK         0.0000 
     69 H69        -1.6681    2.0472   -2.4266 H         1 UNK         0.0000 
     70 H70        -2.4140    4.7135   -3.9860 H         1 UNK         0.0000 
     71 H71        -4.0630    4.4535   -3.4300 H         1 UNK         0.0000 
     72 H72        -3.0344    3.3219   -1.3994 H         1 UNK         0.0000 
     73 H73        -2.0914    2.4192   -0.1753 H         1 UNK         0.0000 
     74 H74        -1.9695    3.0448    1.4612 H         1 UNK         0.0000 
     75 H75         4.2443    1.2143    2.5190 H         1 UNK         0.0000 
     76 H76         5.7932    3.1247    2.2509 H         1 UNK         0.0000 
     77 H77         4.9654    5.2374    1.2358 H         1 UNK         0.0000 
     78 H78         2.6395    5.4047    0.4748 H         1 UNK         0.0000 
@<TRIPOS>BOND
     1    1    2 nc   
     2    1   10 nc   
     3    1   24 nc   
     4    1   26 nc   
     5    1   40 nc   
     6    1   44 nc   
     7    2    3 1    
     8    3    4 1    
     9    3    9 am   BACKBONE|DICT|INTERRES
    10    4   49 1    
    11    4    5 1    
    12    4   50 1    
    13    5   51 1    
    14    5    6 1    
    15    5   52 1    
    16    6   54 1    
    17    6    7 1    
    18    6   53 1    
    19    7    8 1    
    20    7    9 1    
    21    7   11 1    
    22    9   10 2    
    23   11   55 1    
    24   11   12 am   BACKBONE|DICT|INTERRES
    25   12   13 2    
    26   12   14 1    
    27   14   15 1    
    28   14   16 1    
    29   14   20 1    
    30   16   17 1    
    31   16   19 1    
    32   16   18 1    
    33   19   58 1    
    34   19   56 1    
    35   19   57 1    
    36   20   60 1    
    37   20   21 1    
    38   20   59 1    
    39   21   22 1    
    40   21   61 1    
    41   21   62 1    
    42   22   23 1    
    43   22   64 1    
    44   22   63 1    
    45   23   24 1    
    46   23   25 am   BACKBONE|DICT|INTERRES
    47   25   27 1    
    48   25   26 2    
    49   27   28 1    
    50   27   65 1    
    51   27   66 1    
    52   28   29 1    
    53   28   68 1    
    54   28   67 1    
    55   29   69 1    
    56   29   30 am   BACKBONE|DICT|INTERRES
    57   30   32 1    
    58   30   31 2    
    59   32   33 1    
    60   32   70 1    
    61   32   71 1    
    62   33   34 am   BACKBONE|DICT|INTERRES
    63   33   72 1    
    64   34   36 1    
    65   34   35 2    
    66   36   38 1    
    67   36   41 1    
    68   36   37 1    
    69   38   39 2    
    70   39   42 1    
    71   39   40 1    
    72   40   41 1    
    73   41   74 1    
    74   41   73 1    
    75   42   43 ar   
    76   42   48 ar   
    77   43   44 1    
    78   43   45 ar   
    79   45   75 1    
    80   45   46 ar   
    81   46   76 1    
    82   46   47 ar   
    83   47   48 ar   
    84   47   77 1    
    85   48   78 1    
@<TRIPOS>SUBSTRUCTURE
     1 UNK         1 GROUP             0       ****    0 ROOT    
