@<TRIPOS>MOLECULE
026_r3_c1
80   87    1
SMALL
USER_CHARGES


@<TRIPOS>ATOM
      1 Fe1         1.8267   -3.0358   -0.5264 Fe        1 UNK         0.0000 
      2 C2         -1.8104   -3.8710    2.9560 C.ar      1 UNK         0.0000 
      3 C3         -0.9500   -4.9279    3.3186 C.ar      1 UNK         0.0000 
      4 C4          0.0926   -5.3079    2.4614 C.ar      1 UNK         0.0000 
      5 C5          0.2273   -4.6112    1.2633 C.ar      1 UNK         0.0000 
      6 O6          1.1473   -4.7618    0.3081 O.co2     1 UNK         0.0000 
      7 C7         -0.5733   -3.6319    0.9099 C.ar      1 UNK         0.0000 
      8 O8         -0.1411   -3.2039   -0.2818 O.co2     1 UNK         0.0000 
      9 C9         -1.6384   -3.1839    1.7256 C.ar      1 UNK         0.0000 
     10 C10        -2.5403   -2.0369    1.3887 C.2       1 UNK         0.0000 
     11 O11        -3.4344   -1.7416    2.1698 O.2       1 UNK         0.0000 
     12 N12        -2.3673   -1.2958    0.2600 N.am      1 UNK         0.0000 
     13 C13        -3.1426   -0.1187   -0.0702 C.3       1 UNK         0.0000 
     14 C14        -2.9472    0.9910    0.9803 C.3       1 UNK         0.0000 
     15 C15        -3.1994    2.3862    0.3827 C.3       1 UNK         0.0000 
     16 N16        -2.0454    2.8381   -0.4111 N.am      1 UNK         0.0000 
     17 C17        -0.8839    3.3002    0.1890 C.2       1 UNK         0.0000 
     18 O18         0.0312    3.6941   -0.5191 O.2       1 UNK         0.0000 
     19 C19        -0.6396    3.3061    1.7177 C.3       1 UNK         0.0000 
     20 H20        -1.5882    3.0845    2.2352 H         1 UNK         0.0000 
     21 C21        -0.2310    4.7127    2.2387 C.3       1 UNK         0.0000 
     22 H22        -0.9868    5.4409    1.8585 H         1 UNK         0.0000 
     23 C23         1.1727    5.1665    1.8044 C.3       1 UNK         0.0000 
     24 O24        -0.2770    4.6984    3.6436 O.3       1 UNK         0.0000 
     25 N25         0.3100    2.2779    2.1940 N.am      1 UNK         0.0000 
     26 C26         0.9201    1.3100    1.4326 C.2       1 UNK         0.0000 
     27 O27         0.7136    1.2784    0.2364 O.2       1 UNK         0.0000 
     28 C28         1.8153    0.2418    2.0119 C.ar      1 UNK         0.0000 
     29 C29         2.3261   -0.8131    1.2079 C.ar      1 UNK         0.0000 
     30 O30         2.1343   -1.0769   -0.0874 O.co2     1 UNK         0.0000 
     31 C31         3.1053   -1.7762    1.6749 C.ar      1 UNK         0.0000 
     32 O32         3.4080   -2.6326    0.6799 O.co2     1 UNK         0.0000 
     33 C33         3.4891   -1.8343    3.0117 C.ar      1 UNK         0.0000 
     34 C34         3.0197   -0.8290    3.8721 C.ar      1 UNK         0.0000 
     35 C35         2.1894    0.2027    3.3813 C.ar      1 UNK         0.0000 
     36 C36        -2.1371    2.7567   -1.8771 C.3       1 UNK         0.0000 
     37 C37        -1.0385    1.8298   -2.4790 C.3       1 UNK         0.0000 
     38 C38        -1.3375    1.4751   -3.9382 C.3       1 UNK         0.0000 
     39 C39        -0.2101    0.6880   -4.6289 C.3       1 UNK         0.0000 
     40 N40         0.0899   -0.6068   -4.0155 N.am      1 UNK         0.0000 
     41 C41        -0.0454   -1.7889   -4.6933 C.2       1 UNK         0.0000 
     42 O42        -0.5716   -1.7818   -5.7983 O.2       1 UNK         0.0000 
     43 C43         0.4602   -3.1121   -4.1830 C.ar      1 UNK         0.0000 
     44 C44         1.3054   -3.3256   -3.0602 C.ar      1 UNK         0.0000 
     45 O45         1.9177   -2.6072   -2.0786 O.co2     1 UNK         0.0000 
     46 C46         1.7435   -4.3809   -2.7423 C.ar      1 UNK         0.0000 
     47 O47         2.4938   -3.9322   -1.6985 O.co2     1 UNK         0.0000 
     48 C48         1.4911   -5.6037   -3.3522 C.ar      1 UNK         0.0000 
     49 C49         0.6244   -5.5612   -4.4604 C.ar      1 UNK         0.0000 
     50 C50         0.1152   -4.3080   -4.8886 C.ar      1 UNK         0.0000 
     51 H51        -2.5971   -3.5884    3.6441 H         1 UNK         0.0000 
     52 H52        -1.0863   -5.4381    4.2632 H         1 UNK         0.0000 
     53 H53         0.7735   -6.1061    2.7263 H         1 UNK         0.0000 
     54 H54        -1.6312   -1.5299   -0.4115 H         1 UNK         0.0000 
     55 H55        -2.7890    0.2273   -1.0517 H         1 UNK         0.0000 
     56 H56        -4.2208   -0.3546   -0.2006 H         1 UNK         0.0000 
     57 H57        -1.9202    0.9597    1.3893 H         1 UNK         0.0000 
     58 H58        -3.6491    0.7909    1.8169 H         1 UNK         0.0000 
     59 H59        -3.4228    3.1464    1.1593 H         1 UNK         0.0000 
     60 H60        -4.1353    2.3363   -0.2162 H         1 UNK         0.0000 
     61 H61         1.2625    5.2801    0.7085 H         1 UNK         0.0000 
     62 H62         1.3913    6.1617    2.2459 H         1 UNK         0.0000 
     63 H63         1.9425    4.4499    2.1613 H         1 UNK         0.0000 
     64 H64        -0.4322    5.6332    3.9407 H         1 UNK         0.0000 
     65 H65         0.4625    2.2696    3.2093 H         1 UNK         0.0000 
     66 H66         4.1201   -2.6335    3.3780 H         1 UNK         0.0000 
     67 H67         3.2935   -0.8482    4.9190 H         1 UNK         0.0000 
     68 H68         1.8588    0.9464    4.0883 H         1 UNK         0.0000 
     69 H69        -3.1269    2.3418   -2.1661 H         1 UNK         0.0000 
     70 H70        -2.0638    3.7686   -2.3317 H         1 UNK         0.0000 
     71 H71        -0.0495    2.3262   -2.4296 H         1 UNK         0.0000 
     72 H72        -0.9607    0.8850   -1.9106 H         1 UNK         0.0000 
     73 H73        -2.2843    0.8953   -3.9961 H         1 UNK         0.0000 
     74 H74        -1.4720    2.4217   -4.5066 H         1 UNK         0.0000 
     75 H75         0.7176    1.3002   -4.6237 H         1 UNK         0.0000 
     76 H76        -0.5079    0.5718   -5.6928 H         1 UNK         0.0000 
     77 H77         0.4667   -0.5978   -3.0627 H         1 UNK         0.0000 
     78 H78         1.9245   -6.5264   -2.9895 H         1 UNK         0.0000 
     79 H79         0.3632   -6.4711   -4.9847 H         1 UNK         0.0000 
     80 H80        -0.5340   -4.2811   -5.7541 H         1 UNK         0.0000 
@<TRIPOS>BOND
     1    1    6 nc   
     2    1    8 nc   
     3    1   30 nc   
     4    1   32 nc   
     5    1   45 nc   
     6    1   47 nc   
     7    2    3 ar   
     8    2   51 1    
     9    2    9 ar   
    10    3   52 1    
    11    3    4 ar   
    12    4   53 1    
    13    4    5 ar   
    14    5    6 1    
    15    5    7 ar   
    16    7    9 ar   
    17    7    8 1    
    18    9   10 1    
    19   10   11 2    
    20   10   12 am   BACKBONE|DICT|INTERRES
    21   12   13 1    
    22   12   54 1    
    23   13   14 1    
    24   13   55 1    
    25   13   56 1    
    26   14   57 1    
    27   14   58 1    
    28   14   15 1    
    29   15   59 1    
    30   15   16 1    
    31   15   60 1    
    32   16   17 am   BACKBONE|DICT|INTERRES
    33   16   36 1    
    34   17   19 1    
    35   17   18 2    
    36   19   25 1    
    37   19   20 1    
    38   19   21 1    
    39   21   22 1    
    40   21   24 1    
    41   21   23 1    
    42   23   63 1    
    43   23   62 1    
    44   23   61 1    
    45   24   64 1    
    46   25   65 1    
    47   25   26 am   BACKBONE|DICT|INTERRES
    48   26   28 1    
    49   26   27 2    
    50   28   35 ar   
    51   28   29 ar   
    52   29   31 ar   
    53   29   30 1    
    54   31   33 ar   
    55   31   32 1    
    56   33   66 1    
    57   33   34 ar   
    58   34   67 1    
    59   34   35 ar   
    60   35   68 1    
    61   36   37 1    
    62   36   69 1    
    63   36   70 1    
    64   37   71 1    
    65   37   72 1    
    66   37   38 1    
    67   38   39 1    
    68   38   73 1    
    69   38   74 1    
    70   39   75 1    
    71   39   40 1    
    72   39   76 1    
    73   40   77 1    
    74   40   41 am   BACKBONE|DICT|INTERRES
    75   41   43 1    
    76   41   42 2    
    77   43   44 ar   
    78   43   50 ar   
    79   44   46 ar   
    80   44   45 1    
    81   46   47 1    
    82   46   48 ar   
    83   48   78 1    
    84   48   49 ar   
    85   49   50 ar   
    86   49   79 1    
    87   50   80 1    
@<TRIPOS>SUBSTRUCTURE
     1 UNK         1 GROUP             0       ****    0 ROOT    
