@<TRIPOS>MOLECULE
124_c1
81   86    1
SMALL
USER_CHARGES


@<TRIPOS>ATOM
      1 Fe1         0.4763   -0.5375   -1.8035 Fe        1 UNK         0.0000 
      2 O2         -1.3538    0.3017   -2.6706 O.co2     1 UNK         0.0000 
      3 C3         -1.3629    1.5257   -2.7938 C.2       1 UNK         0.0000 
      4 C4         -2.7178    2.2273   -2.8574 C.3       1 UNK         0.0000 
      5 N5         -0.1554    2.1483   -2.7965 N.am      1 UNK         0.0000 
      6 O6          0.9975    1.4736   -2.7279 O.co2     1 UNK         0.0000 
      7 C7          0.0456    3.5978   -2.7213 C.3       1 UNK         0.0000 
      8 C8          0.5295    4.0297   -1.3224 C.3       1 UNK         0.0000 
      9 C9          0.7652    5.5461   -1.2064 C.3       1 UNK         0.0000 
     10 C10         1.1392    6.0258    0.2205 C.3       1 UNK         0.0000 
     11 H11         1.2526    7.1113    0.1645 H         1 UNK         0.0000 
     12 N12         2.4306    5.4903    0.6980 N.am      1 UNK         0.0000 
     13 C13         2.6510    4.8569    1.8592 C.2       1 UNK         0.0000 
     14 O14         3.7929    4.5270    2.1476 O.2       1 UNK         0.0000 
     15 C15        -0.0956    5.8690    1.1669 C.2       1 UNK         0.0000 
     16 O16        -1.2185    6.2977    0.9391 O.2       1 UNK         0.0000 
     17 N17         0.1146    5.1950    2.3052 N.am      1 UNK         0.0000 
     18 C18         1.3937    4.6146    2.7593 C.3       1 UNK         0.0000 
     19 H19         1.6687    5.1469    3.6740 H         1 UNK         0.0000 
     20 C20         1.2721    3.1091    3.1345 C.3       1 UNK         0.0000 
     21 C21         0.8926    2.1790    1.9605 C.3       1 UNK         0.0000 
     22 C22         0.7256    0.6873    2.3508 C.3       1 UNK         0.0000 
     23 N23         0.4564   -0.1989    1.1948 N.am      1 UNK         0.0000 
     24 O24         1.3791   -0.1040    0.2307 O.co2     1 UNK         0.0000 
     25 C25        -0.6790   -0.9249    1.0048 C.2       1 UNK         0.0000 
     26 O26        -0.9243   -1.2931   -0.1448 O.co2     1 UNK         0.0000 
     27 C27        -1.7093   -1.2897    2.1102 C.3       1 UNK         0.0000 
     28 H28        -2.1703   -0.3419    2.3996 H         1 UNK         0.0000 
     29 C29        -1.1598   -1.9492    3.4075 C.3       1 UNK         0.0000 
     30 O30        -2.2048   -1.9839    4.3673 O.3       1 UNK         0.0000 
     31 N31        -2.7932   -2.1384    1.5744 N.am      1 UNK         0.0000 
     32 C32        -2.7884   -3.3694    1.0223 C.2       1 UNK         0.0000 
     33 O33        -3.8485   -3.9029    0.7151 O.2       1 UNK         0.0000 
     34 C34        -1.4948   -4.1782    0.7576 C.3       1 UNK         0.0000 
     35 H35        -0.6463   -3.6375    1.1670 H         1 UNK         0.0000 
     36 N36        -1.6355   -5.4354    1.4803 N.am      1 UNK         0.0000 
     37 C37        -0.6268   -6.1761    1.9477 C.2       1 UNK         0.0000 
     38 O38         0.5510   -5.8438    1.8470 O.2       1 UNK         0.0000 
     39 C39        -0.9920   -7.4832    2.6305 C.3       1 UNK         0.0000 
     40 C40        -1.2237   -4.4041   -0.7638 C.3       1 UNK         0.0000 
     41 C41         0.2673   -4.7424   -1.1142 C.3       1 UNK         0.0000 
     42 C42         0.8191   -4.3401   -2.5222 C.3       1 UNK         0.0000 
     43 N43         1.0942   -2.8963   -2.6840 N.am      1 UNK         0.0000 
     44 O44         0.0317   -2.1372   -2.5160 O.co2     1 UNK         0.0000 
     45 C45         2.3189   -2.3200   -2.7680 C.2       1 UNK         0.0000 
     46 O46         2.3243   -1.1106   -2.5204 O.co2     1 UNK         0.0000 
     47 C47         3.5977   -3.0692   -3.1071 C.3       1 UNK         0.0000 
     48 H48        -2.6870    3.3105   -2.9001 H         1 UNK         0.0000 
     49 H49        -3.2575    1.8700   -3.7344 H         1 UNK         0.0000 
     50 H50        -3.2991    1.9457   -1.9796 H         1 UNK         0.0000 
     51 H51         0.7867    3.8804   -3.4733 H         1 UNK         0.0000 
     52 H52        -0.8295    4.1856   -3.0012 H         1 UNK         0.0000 
     53 H53         1.4551    3.5077   -1.0767 H         1 UNK         0.0000 
     54 H54        -0.2083    3.7073   -0.5883 H         1 UNK         0.0000 
     55 H55         1.5655    5.8279   -1.8929 H         1 UNK         0.0000 
     56 H56        -0.1181    6.0817   -1.5603 H         1 UNK         0.0000 
     57 H57         3.2551    5.5821    0.1258 H         1 UNK         0.0000 
     58 H58        -0.7108    5.0977    2.8730 H         1 UNK         0.0000 
     59 H59         2.2040    2.7659    3.5895 H         1 UNK         0.0000 
     60 H60         0.5172    3.0137    3.9165 H         1 UNK         0.0000 
     61 H61        -0.0328    2.5309    1.5069 H         1 UNK         0.0000 
     62 H62         1.6645    2.2693    1.1976 H         1 UNK         0.0000 
     63 H63        -0.0317    0.6438    3.1373 H         1 UNK         0.0000 
     64 H64         1.6388    0.3536    2.8525 H         1 UNK         0.0000 
     65 H65        -0.3305   -1.3951    3.8404 H         1 UNK         0.0000 
     66 H66        -0.7930   -2.9562    3.2413 H         1 UNK         0.0000 
     67 H67        -1.9431   -2.5176    5.1226 H         1 UNK         0.0000 
     68 H68        -3.7043   -1.7297    1.6801 H         1 UNK         0.0000 
     69 H69        -2.5990   -5.7107    1.6216 H         1 UNK         0.0000 
     70 H70        -1.6539   -8.0778    1.9999 H         1 UNK         0.0000 
     71 H71        -1.4882   -7.2869    3.5806 H         1 UNK         0.0000 
     72 H72        -0.0931   -8.0696    2.8264 H         1 UNK         0.0000 
     73 H73        -1.5690   -3.5297   -1.3118 H         1 UNK         0.0000 
     74 H74        -1.8711   -5.2077   -1.1247 H         1 UNK         0.0000 
     75 H75         0.9386   -4.3360   -0.3573 H         1 UNK         0.0000 
     76 H76         0.3744   -5.8262   -1.0220 H         1 UNK         0.0000 
     77 H77         1.7008   -4.9420   -2.7387 H         1 UNK         0.0000 
     78 H78         0.0952   -4.6292   -3.2868 H         1 UNK         0.0000 
     79 H79         4.3774   -2.3356   -3.3066 H         1 UNK         0.0000 
     80 H80         3.9271   -3.7107   -2.2899 H         1 UNK         0.0000 
     81 H81         3.4606   -3.6513   -4.0146 H         1 UNK         0.0000 
@<TRIPOS>BOND
     1    1    2 nc   
     2    1    6 nc   
     3    1   24 nc   
     4    1   26 nc   
     5    1   44 nc   
     6    1   46 nc   
     7    2    3 2    
     8    3    4 1    
     9    3    5 am   BACKBONE|DICT|INTERRES
    10    4   50 1    
    11    4   48 1    
    12    4   49 1    
    13    5    6 1    
    14    5    7 1    
    15    7    8 1    
    16    7   51 1    
    17    7   52 1    
    18    8    9 1    
    19    8   53 1    
    20    8   54 1    
    21    9   10 1    
    22    9   55 1    
    23    9   56 1    
    24   10   11 1    
    25   10   12 1    
    26   10   15 1    
    27   12   13 am   BACKBONE|DICT|INTERRES
    28   12   57 1    
    29   13   14 2    
    30   13   18 1    
    31   15   17 am   BACKBONE|DICT|INTERRES
    32   15   16 2    
    33   17   18 1    
    34   17   58 1    
    35   18   20 1    
    36   18   19 1    
    37   20   59 1    
    38   20   60 1    
    39   20   21 1    
    40   21   22 1    
    41   21   61 1    
    42   21   62 1    
    43   22   64 1    
    44   22   63 1    
    45   22   23 1    
    46   23   24 1    
    47   23   25 am   BACKBONE|DICT|INTERRES
    48   25   26 2    
    49   25   27 1    
    50   27   28 1    
    51   27   29 1    
    52   27   31 1    
    53   29   65 1    
    54   29   30 1    
    55   29   66 1    
    56   30   67 1    
    57   31   32 am   BACKBONE|DICT|INTERRES
    58   31   68 1    
    59   32   33 2    
    60   32   34 1    
    61   34   35 1    
    62   34   36 1    
    63   34   40 1    
    64   36   69 1    
    65   36   37 am   BACKBONE|DICT|INTERRES
    66   37   39 1    
    67   37   38 2    
    68   39   72 1    
    69   39   71 1    
    70   39   70 1    
    71   40   41 1    
    72   40   73 1    
    73   40   74 1    
    74   41   76 1    
    75   41   75 1    
    76   41   42 1    
    77   42   43 1    
    78   42   77 1    
    79   42   78 1    
    80   43   44 1    
    81   43   45 am   BACKBONE|DICT|INTERRES
    82   45   47 1    
    83   45   46 2    
    84   47   80 1    
    85   47   79 1    
    86   47   81 1    
@<TRIPOS>SUBSTRUCTURE
     1 UNK         1 GROUP             0       ****    0 ROOT    
