@<TRIPOS>MOLECULE
024_r1_c1
49   56    1
SMALL
USER_CHARGES


@<TRIPOS>ATOM
      1 Fe1         0.0000    0.0000    0.0000 Fe        1 UNK         0.0000 
      2 O2         -0.1162    1.8731    0.0896 O.co2     1 UNK         0.0000 
      3 C3          0.8158    2.7182   -0.4313 C.ar      1 UNK         0.0000 
      4 C4          0.4426    4.0510   -0.6272 C.ar      1 UNK         0.0000 
      5 C5          1.3326    4.9585   -1.1961 C.ar      1 UNK         0.0000 
      6 C6          2.5988    4.5240   -1.5770 C.ar      1 UNK         0.0000 
      7 N7          2.9609    3.2296   -1.3849 N.ar      1 UNK         0.0000 
      8 C8          2.1356    2.3048   -0.8188 C.ar      1 UNK         0.0000 
      9 C9          2.6861    0.9172   -0.6780 C.2       1 UNK         0.0000 
     10 N10         2.1000    0.0000    0.0000 N.pl3     1 UNK         0.0000 
     11 S11         4.2049    0.3803   -1.4782 S.3       1 UNK         0.0000 
     12 C12         3.5266   -1.3091   -1.3406 C.3       1 UNK         0.0000 
     13 C13         2.6797   -1.3122   -0.0599 C.3       1 UNK         0.0000 
     14 C14         1.5574   -2.3248   -0.1309 C.2       1 UNK         0.0000 
     15 O15         0.2709   -1.8731   -0.0896 O.co2     1 UNK         0.0000 
     16 O16         1.7861   -3.5206   -0.2235 O.co2     1 UNK         0.0000 
     17 C17         3.5333   -1.5402    1.1979 C.3       1 UNK         0.0000 
     18 H18        -0.5485    4.3828   -0.3434 H         1 UNK         0.0000 
     19 H19         1.0394    5.9891   -1.3484 H         1 UNK         0.0000 
     20 H20         3.2975    5.2162   -2.0276 H         1 UNK         0.0000 
     21 H21         2.8748   -1.4325   -2.2346 H         1 UNK         0.0000 
     22 H22         4.2924   -2.1138   -1.3358 H         1 UNK         0.0000 
     23 H23         2.8992   -1.4767    2.1087 H         1 UNK         0.0000 
     24 H24         4.3331   -0.7732    1.2766 H         1 UNK         0.0000 
     25 H25         4.0111   -2.5428    1.1672 H         1 UNK         0.0000 
     26 O26         0.1162    0.0896    1.8731 O.co2     1 UNK         0.0000 
     27 C27        -0.8162   -0.4309    2.7181 C.ar      1 UNK         0.0000 
     28 C28        -0.4432   -0.6264    4.0510 C.ar      1 UNK         0.0000 
     29 C29        -1.3334   -1.1948    4.9585 C.ar      1 UNK         0.0000 
     30 C30        -2.5996   -1.5756    4.5239 C.ar      1 UNK         0.0000 
     31 N31        -2.9615   -1.3842    3.2293 N.ar      1 UNK         0.0000 
     32 C32        -2.1359   -0.8185    2.3046 C.ar      1 UNK         0.0000 
     33 C33        -2.6862   -0.6780    0.9171 C.2       1 UNK         0.0000 
     34 N34        -2.1000    0.0000    0.0000 N.pl3     1 UNK         0.0000 
     35 S35        -4.2052   -1.4780    0.3801 S.3       1 UNK         0.0000 
     36 C36        -3.5265   -1.3407   -1.3090 C.3       1 UNK         0.0000 
     37 C37        -2.6798   -0.0600   -1.3125 C.3       1 UNK         0.0000 
     38 C38        -1.5573   -0.1314   -2.3248 C.2       1 UNK         0.0000 
     39 O39        -0.2709   -0.0896   -1.8731 O.co2     1 UNK         0.0000 
     40 O40        -1.7864   -0.2246   -3.5213 O.co2     1 UNK         0.0000 
     41 C41        -3.5333    1.1977   -1.5409 C.3       1 UNK         0.0000 
     42 H42         0.5479   -0.3427    4.3830 H         1 UNK         0.0000 
     43 H43        -1.0405   -1.3468    5.9892 H         1 UNK         0.0000 
     44 H44        -3.2983   -2.0258    5.2162 H         1 UNK         0.0000 
     45 H45        -2.8748   -2.2349   -1.4320 H         1 UNK         0.0000 
     46 H46        -4.2924   -1.3362   -2.1137 H         1 UNK         0.0000 
     47 H47        -2.8991    2.1085   -1.4774 H         1 UNK         0.0000 
     48 H48        -4.3333    1.2766   -0.7741 H         1 UNK         0.0000 
     49 H49        -4.0108    1.1668   -2.5439 H         1 UNK         0.0000 
@<TRIPOS>BOND
     1    1    2 nc   
     2    1   10 nc   
     3    1   15 nc   
     4    1   26 nc   
     5    1   34 nc   
     6    1   39 nc   
     7    2    3 1    
     8    3    4 ar   
     9    3    8 ar   
    10    4   18 1    
    11    4    5 ar   
    12    5    6 ar   
    13    5   19 1    
    14    6    7 ar   
    15    6   20 1    
    16    7    8 ar   
    17    8    9 1    
    18    9   11 1    
    19    9   10 2    
    20   10   13 1    
    21   11   12 1    
    22   12   22 1    
    23   12   13 1    
    24   12   21 1    
    25   13   17 1    
    26   13   14 1    
    27   14   15 1    
    28   14   16 2    
    29   17   24 1    
    30   17   23 1    
    31   17   25 1    
    32   26   27 1    
    33   27   28 ar   
    34   27   32 ar   
    35   28   42 1    
    36   28   29 ar   
    37   29   43 1    
    38   29   30 ar   
    39   30   44 1    
    40   30   31 ar   
    41   31   32 ar   
    42   32   33 1    
    43   33   34 2    
    44   33   35 1    
    45   34   37 1    
    46   35   36 1    
    47   36   37 1    
    48   36   45 1    
    49   36   46 1    
    50   37   38 1    
    51   37   41 1    
    52   38   39 1    
    53   38   40 2    
    54   41   47 1    
    55   41   48 1    
    56   41   49 1    
@<TRIPOS>SUBSTRUCTURE
     1 UNK         1 GROUP             0       ****    0 ROOT    
