@<TRIPOS>MOLECULE
263_C_c1
141   146    1
SMALL
USER_CHARGES


@<TRIPOS>ATOM
      1 C1         31.4312    9.7612   10.3735 C.3       1 UNK         0.0000 
      2 C2         30.5434    8.5983   10.8219 C.2       1 UNK         0.0000 
      3 O3         29.9297    8.6686   11.8946 O.co2     1 UNK         0.0000 
      4 N4         30.4186    7.4312   10.1424 N.am      1 UNK         0.0000 
      5 O5         30.0125    6.3097   10.7860 O.co2     1 UNK         0.0000 
      6 C6         30.4882    7.3063    8.6507 C.3       1 UNK         0.0000 
      7 C7         29.7498    8.3673    7.7227 C.3       1 UNK         0.0000 
      8 C8         28.2515    8.2300    7.2163 C.3       1 UNK         0.0000 
      9 C9         27.0686    8.0572    8.2332 C.3       1 UNK         0.0000 
     10 H10        26.8389    6.9878    8.2812 H         1 UNK         0.0000 
     11 C11        27.5149    8.5295    9.6431 C.2       1 UNK         0.0000 
     12 O12        27.5630    7.5700   10.4503 O.co2     1 UNK         0.0000 
     13 O13        27.7987    9.7403    9.7647 O.co2     1 UNK         0.0000 
     14 N14        25.8076    8.8142    8.0027 N.am      1 UNK         0.0000 
     15 C15        24.6849    8.4590    8.6690 C.2       1 UNK         0.0000 
     16 O16        24.3551    7.2901    8.8528 O.2       1 UNK         0.0000 
     17 C17        23.8385    9.5236    9.3979 C.3       1 UNK         0.0000 
     18 H18        22.8260    9.3581    9.0276 H         1 UNK         0.0000 
     19 C19        24.1661   11.0193    9.1306 C.3       1 UNK         0.0000 
     20 O20        23.9081   11.3788    7.7839 O.3       1 UNK         0.0000 
     21 N21        23.7824    9.1680   10.8353 N.am      1 UNK         0.0000 
     22 C22        24.4567    9.6711   11.8959 C.2       1 UNK         0.0000 
     23 O23        25.1010   10.7172   11.8706 O.2       1 UNK         0.0000 
     24 C24        24.2843    8.8738   13.2176 C.3       1 UNK         0.0000 
     25 H25        23.2035    8.8949   13.3736 H         1 UNK         0.0000 
     26 C26        24.8784    9.5138   14.5479 C.3       1 UNK         0.0000 
     27 C27        26.1462   10.4339   14.6932 C.3       1 UNK         0.0000 
     28 C28        27.6223   10.0482   14.3233 C.3       1 UNK         0.0000 
     29 N29        27.9846    8.6391   14.0795 N.am      1 UNK         0.0000 
     30 O30        27.3061    8.1706   13.0657 O.co2     1 UNK         0.0000 
     31 C31        29.0707    7.9814   14.5684 C.2       1 UNK         0.0000 
     32 O32        29.5000    7.0021   13.9169 O.co2     1 UNK         0.0000 
     33 C33        29.7894    8.4770   15.8189 C.3       1 UNK         0.0000 
     34 N34        24.5686    7.4475   12.9425 N.am      1 UNK         0.0000 
     35 C35        24.8607    6.4413   13.7900 C.2       1 UNK         0.0000 
     36 O36        24.7314    6.4936   15.0156 O.2       1 UNK         0.0000 
     37 C37        25.1921    5.0561   13.1840 C.3       1 UNK         0.0000 
     38 H38        25.5703    4.4904   14.0330 H         1 UNK         0.0000 
     39 C39        26.3346    4.9394   12.0953 C.3       1 UNK         0.0000 
     40 O40        27.6695    5.2379   12.4685 O.co2     1 UNK         0.0000 
     41 N41        23.8765    4.4294   12.9439 N.am      1 UNK         0.0000 
     42 C42        23.1391    4.1419   11.8546 C.2       1 UNK         0.0000 
     43 O43        23.5231    4.2070   10.6946 O.2       1 UNK         0.0000 
     44 C44        21.6702    3.7437   12.1334 C.3       1 UNK         0.0000 
     45 H45        21.3200    3.3422   11.1815 H         1 UNK         0.0000 
     46 C46        20.8746    5.0490   12.4581 C.3       1 UNK         0.0000 
     47 C47        19.3504    4.8817   12.5680 C.2       1 UNK         0.0000 
     48 O48        18.8087    5.0283   13.6656 O.2       1 UNK         0.0000 
     49 C49        18.5443    4.4708   11.3366 C.3       1 UNK         0.0000 
     50 H50        17.7738    5.2441   11.2939 H         1 UNK         0.0000 
     51 C51        17.8081    3.1032   11.5913 C.3       1 UNK         0.0000 
     52 H52        17.4605    3.0020   12.6174 H         1 UNK         0.0000 
     53 O53        16.6253    3.1310   10.7797 O.3       1 UNK         0.0000 
     54 C54        18.6693    1.8467   11.2241 C.2       1 UNK         0.0000 
     55 O55        18.4430    1.2468   10.1766 O.2       1 UNK         0.0000 
     56 N56        19.6611    1.3834   12.0003 N.am      1 UNK         0.0000 
     57 C57        20.1754    1.8603   13.2914 C.3       1 UNK         0.0000 
     58 C58        21.5472    2.5802   13.1722 C.3       1 UNK         0.0000 
     59 N59        19.3608    4.5427   10.0809 N.3       1 UNK         0.0000 
     60 C60        18.7117    5.2486    8.9814 C.3       1 UNK         0.0000 
     61 C61        19.6145    5.3002    7.7452 C.2       1 UNK         0.0000 
     62 O62        19.8073    4.2803    7.0843 O.2       1 UNK         0.0000 
     63 C63        20.2492    6.6500    7.3882 C.3       1 UNK         0.0000 
     64 C64        20.1052    7.0761    5.9060 C.3       1 UNK         0.0000 
     65 C65        20.9280    6.2248    4.9185 C.3       1 UNK         0.0000 
     66 C66        20.8378    6.7414    3.4785 C.3       1 UNK         0.0000 
     67 C67        21.6022    5.8403    2.4925 C.3       1 UNK         0.0000 
     68 C68        21.4122    6.2754    1.0301 C.3       1 UNK         0.0000 
     69 C69        22.0234    5.2815    0.0248 C.3       1 UNK         0.0000 
     70 C70        21.5101    5.4954   -1.4141 C.3       1 UNK         0.0000 
     71 C71        22.0614    6.7428   -2.1382 C.3       1 UNK         0.0000 
     72 C72        23.4601    6.5282   -2.7507 C.3       1 UNK         0.0000 
     73 C73        23.8686    7.6755   -3.7002 C.3       1 UNK         0.0000 
     74 C74        25.0875    7.3538   -4.5886 C.3       1 UNK         0.0000 
     75 C75        26.4072    7.1799   -3.8129 C.3       1 UNK         0.0000 
     76 H76        31.1418   10.2143    9.4356 H         1 UNK         0.0000 
     77 H77        32.4580    9.4203   10.3017 H         1 UNK         0.0000 
     78 H78        31.3769   10.5454   11.1234 H         1 UNK         0.0000 
     79 H79        30.1447    6.3125    8.3489 H         1 UNK         0.0000 
     80 H80        31.5590    7.3146    8.4017 H         1 UNK         0.0000 
     81 H81        30.3338    8.3665    6.8123 H         1 UNK         0.0000 
     82 H82        29.8649    9.3811    8.0939 H         1 UNK         0.0000 
     83 H83        28.2071    7.4092    6.5084 H         1 UNK         0.0000 
     84 H84        28.0379    9.1217    6.6286 H         1 UNK         0.0000 
     85 H85        25.9541    9.8100    7.9500 H         1 UNK         0.0000 
     86 H86        25.2021   11.2530    9.3845 H         1 UNK         0.0000 
     87 H87        23.5384   11.6483    9.7622 H         1 UNK         0.0000 
     88 H88        24.2070   12.2831    7.6456 H         1 UNK         0.0000 
     89 H89        23.2696    8.3125   10.9911 H         1 UNK         0.0000 
     90 H90        24.8977    8.7951   15.3607 H         1 UNK         0.0000 
     91 H91        24.0641   10.1717   14.8659 H         1 UNK         0.0000 
     92 H92        26.1908   10.6192   15.7638 H         1 UNK         0.0000 
     93 H93        25.9286   11.4157   14.2833 H         1 UNK         0.0000 
     94 H94        28.2816   10.5124   15.0646 H         1 UNK         0.0000 
     95 H95        27.8722   10.5953   13.4129 H         1 UNK         0.0000 
     96 H96        30.2280    9.4495   15.6464 H         1 UNK         0.0000 
     97 H97        30.5818    7.7915   16.0918 H         1 UNK         0.0000 
     98 H98        29.0884    8.5437   16.6418 H         1 UNK         0.0000 
     99 H99        24.7553    7.2368   11.9727 H         1 UNK         0.0000 
    100 H100       26.0296    5.5523   11.2436 H         1 UNK         0.0000 
    101 H101       26.2546    3.9298   11.6792 H         1 UNK         0.0000 
    102 H102       23.3750    4.4254   13.8092 H         1 UNK         0.0000 
    103 H103       21.0509    5.7993   11.6826 H         1 UNK         0.0000 
    104 H104       21.2373    5.4914   13.3869 H         1 UNK         0.0000 
    105 H105       16.7804    2.5369   10.0275 H         1 UNK         0.0000 
    106 H106       20.1057    0.5668   11.6010 H         1 UNK         0.0000 
    107 H107       20.2953    0.9884   13.9381 H         1 UNK         0.0000 
    108 H108       19.4434    2.4938   13.7974 H         1 UNK         0.0000 
    109 H109       22.2782    1.8139   12.9048 H         1 UNK         0.0000 
    110 H110       21.8423    2.9359   14.1578 H         1 UNK         0.0000 
    111 H111       19.5459    3.6085    9.7121 H         1 UNK         0.0000 
    112 H112       18.4253    6.2603    9.2696 H         1 UNK         0.0000 
    113 H113       17.7982    4.7133    8.7113 H         1 UNK         0.0000 
    114 H114       21.3007    6.6079    7.6743 H         1 UNK         0.0000 
    115 H115       19.8039    7.4117    8.0252 H         1 UNK         0.0000 
    116 H116       20.4084    8.1232    5.8184 H         1 UNK         0.0000 
    117 H117       19.0510    7.0555    5.6160 H         1 UNK         0.0000 
    118 H118       20.5788    5.1929    4.9313 H         1 UNK         0.0000 
    119 H119       21.9708    6.1944    5.2398 H         1 UNK         0.0000 
    120 H120       19.7874    6.7925    3.1791 H         1 UNK         0.0000 
    121 H121       21.2202    7.7630    3.4239 H         1 UNK         0.0000 
    122 H122       21.2542    4.8110    2.6099 H         1 UNK         0.0000 
    123 H123       22.6637    5.8279    2.7488 H         1 UNK         0.0000 
    124 H124       21.8395    7.2684    0.8844 H         1 UNK         0.0000 
    125 H125       20.3423    6.3748    0.8333 H         1 UNK         0.0000 
    126 H126       21.7632    4.2646    0.3235 H         1 UNK         0.0000 
    127 H127       23.1131    5.3294    0.0614 H         1 UNK         0.0000 
    128 H128       20.4203    5.5569   -1.3963 H         1 UNK         0.0000 
    129 H129       21.7295    4.6028   -2.0033 H         1 UNK         0.0000 
    130 H130       22.0734    7.6083   -1.4726 H         1 UNK         0.0000 
    131 H131       21.3628    7.0005   -2.9362 H         1 UNK         0.0000 
    132 H132       24.1998    6.4152   -1.9573 H         1 UNK         0.0000 
    133 H133       23.4667    5.5874   -3.3072 H         1 UNK         0.0000 
    134 H134       24.0534    8.5862   -3.1251 H         1 UNK         0.0000 
    135 H135       23.0269    7.9109   -4.3557 H         1 UNK         0.0000 
    136 H136       24.8838    6.4538   -5.1709 H         1 UNK         0.0000 
    137 H137       25.2074    8.1529   -5.3198 H         1 UNK         0.0000 
    138 H138       26.3590    6.3456   -3.1136 H         1 UNK         0.0000 
    139 H139       26.6572    8.0765   -3.2446 H         1 UNK         0.0000 
    140 H140       27.2342    6.9839   -4.4938 H         1 UNK         0.0000 
    141 Fe141      28.6340    7.1091   12.0857 Fe        1 UNK         0.0000 
@<TRIPOS>BOND
     1    1    2 1    
     2    1   76 1    
     3    1   77 1    
     4    1   78 1    
     5    2    3 2    
     6    2    4 am   BACKBONE|DICT|INTERRES
     7    3  141 nc   
     8    4    5 1    
     9    4    6 1    
    10    5  141 nc   
    11    6    7 1    
    12    6   79 1    
    13    6   80 1    
    14    7    8 1    
    15    7   81 1    
    16    7   82 1    
    17    8    9 1    
    18    8   83 1    
    19    8   84 1    
    20    9   10 1    
    21    9   11 1    
    22    9   14 1    
    23   11   12 1    
    24   11   13 2    
    25   12  141 nc   
    26   14   15 am   BACKBONE|DICT|INTERRES
    27   14   85 1    
    28   15   16 2    
    29   15   17 1    
    30   17   19 1    
    31   17   21 1    
    32   17   18 1    
    33   19   20 1    
    34   19   86 1    
    35   19   87 1    
    36   20   88 1    
    37   21   22 am   BACKBONE|DICT|INTERRES
    38   21   89 1    
    39   22   23 2    
    40   22   24 1    
    41   24   26 1    
    42   24   34 1    
    43   24   25 1    
    44   26   27 1    
    45   26   90 1    
    46   26   91 1    
    47   27   28 1    
    48   27   92 1    
    49   27   93 1    
    50   28   29 1    
    51   28   94 1    
    52   28   95 1    
    53   29   30 1    
    54   29   31 am   BACKBONE|DICT|INTERRES
    55   30  141 nc   
    56   31   32 2    
    57   31   33 1    
    58   32  141 nc   
    59   33   96 1    
    60   33   97 1    
    61   33   98 1    
    62   34   35 am   BACKBONE|DICT|INTERRES
    63   34   99 1    
    64   35   36 2    
    65   35   37 1    
    66   37   39 1    
    67   37   41 1    
    68   37   38 1    
    69   39   40 1    
    70   39  100 1    
    71   39  101 1    
    72   40  141 nc   
    73   41   42 am   BACKBONE|DICT|INTERRES
    74   41  102 1    
    75   42   43 2    
    76   42   44 1    
    77   44   46 1    
    78   44   58 1    
    79   44   45 1    
    80   46   47 1    
    81   46  103 1    
    82   46  104 1    
    83   47   48 2    
    84   47   49 1    
    85   49   51 1    
    86   49   59 1    
    87   49   50 1    
    88   51   54 1    
    89   51   53 1    
    90   51   52 1    
    91   53  105 1    
    92   54   55 2    
    93   54   56 am   BACKBONE|DICT|INTERRES
    94   56   57 1    
    95   56  106 1    
    96   57   58 1    
    97   57  107 1    
    98   57  108 1    
    99   58  109 1    
   100   58  110 1    
   101   59   60 1    
   102   59  111 1    
   103   60   61 1    
   104   60  112 1    
   105   60  113 1    
   106   61   62 2    
   107   61   63 1    
   108   63   64 1    
   109   63  114 1    
   110   63  115 1    
   111   64   65 1    
   112   64  116 1    
   113   64  117 1    
   114   65   66 1    
   115   65  118 1    
   116   65  119 1    
   117   66   67 1    
   118   66  120 1    
   119   66  121 1    
   120   67   68 1    
   121   67  122 1    
   122   67  123 1    
   123   68   69 1    
   124   68  124 1    
   125   68  125 1    
   126   69   70 1    
   127   69  126 1    
   128   69  127 1    
   129   70   71 1    
   130   70  128 1    
   131   70  129 1    
   132   71   72 1    
   133   71  130 1    
   134   71  131 1    
   135   72   73 1    
   136   72  132 1    
   137   72  133 1    
   138   73   74 1    
   139   73  134 1    
   140   73  135 1    
   141   74   75 1    
   142   74  136 1    
   143   74  137 1    
   144   75  138 1    
   145   75  139 1    
   146   75  140 1    
@<TRIPOS>SUBSTRUCTURE
     1 UNK         1 GROUP             0       ****    0 ROOT    
