@<TRIPOS>MOLECULE
025_r1_c1
77   85    1
SMALL
USER_CHARGES


@<TRIPOS>ATOM
      1 Fe1         2.0167   -2.3092    0.9717 Fe        1 UNK         0.0000 
      2 C2         -2.3297   -4.4513   -0.6783 C.ar      1 UNK         0.0000 
      3 C3         -1.4045   -5.3883   -1.1547 C.ar      1 UNK         0.0000 
      4 C4         -0.1002   -5.3689   -0.6774 C.ar      1 UNK         0.0000 
      5 C5          0.2381   -4.3879    0.2463 C.ar      1 UNK         0.0000 
      6 O6          1.4144   -4.2463    0.8385 O.co2     1 UNK         0.0000 
      7 C7         -0.6013   -3.4508    0.6882 C.ar      1 UNK         0.0000 
      8 O8          0.0958   -2.6745    1.5519 O.co2     1 UNK         0.0000 
      9 C9         -1.9671   -3.4420    0.2655 C.ar      1 UNK         0.0000 
     10 C10        -3.0962   -2.5604    0.7325 C.2       1 UNK         0.0000 
     11 O11        -4.2220   -3.0226    0.5743 O.2       1 UNK         0.0000 
     12 N12        -2.9921   -1.3194    1.3083 N.am      1 UNK         0.0000 
     13 C13        -4.2287   -0.7140    1.8060 C.3       1 UNK         0.0000 
     14 C14        -4.1921    0.7394    2.3059 C.3       1 UNK         0.0000 
     15 C15        -4.2011    1.7922    1.1768 C.3       1 UNK         0.0000 
     16 N16        -2.8681    2.2421    0.7886 N.am      1 UNK         0.0000 
     17 C17        -2.3712    1.9495   -0.4603 C.2       1 UNK         0.0000 
     18 O18        -2.9883    1.1805   -1.1876 O.2       1 UNK         0.0000 
     19 C19        -1.0543    2.5007   -0.9843 C.3       1 UNK         0.0000 
     20 H20        -0.6820    3.3598   -0.3936 H         1 UNK         0.0000 
     21 N21        -0.1059    1.4282   -0.9568 N.2       1 UNK         0.0000 
     22 C22         0.2063    1.0895   -2.1423 C.2       1 UNK         0.0000 
     23 O23        -0.3902    1.8392   -3.0884 O.3       1 UNK         0.0000 
     24 C24        -1.1107    2.8537   -2.4934 C.3       1 UNK         0.0000 
     25 H25        -2.1536    2.8876   -2.8786 H         1 UNK         0.0000 
     26 C26        -0.4252    4.1855   -2.8072 C.3       1 UNK         0.0000 
     27 C27         1.1316   -0.0239   -2.4515 C.ar      1 UNK         0.0000 
     28 C28         1.8440   -0.7596   -1.4694 C.ar      1 UNK         0.0000 
     29 O29         1.8626   -0.6330   -0.1252 O.co2     1 UNK         0.0000 
     30 C30         2.6486   -1.7570   -1.8082 C.ar      1 UNK         0.0000 
     31 O31         3.1866   -2.2862   -0.7147 O.co2     1 UNK         0.0000 
     32 C32         2.8540   -2.1560   -3.1284 C.ar      1 UNK         0.0000 
     33 C33         2.1759   -1.4620   -4.1374 C.ar      1 UNK         0.0000 
     34 C34         1.3196   -0.3979   -3.8023 C.ar      1 UNK         0.0000 
     35 C35        -2.1544    3.0559    1.7766 C.3       1 UNK         0.0000 
     36 C36        -0.8576    2.3943    2.2566 C.3       1 UNK         0.0000 
     37 C37        -0.3528    3.0642    3.5395 C.3       1 UNK         0.0000 
     38 C38         1.0733    2.6504    3.9023 C.3       1 UNK         0.0000 
     39 N39         1.2764    1.2138    3.8394 N.am      1 UNK         0.0000 
     40 C40         1.6643    0.4592    4.9009 C.2       1 UNK         0.0000 
     41 O41         1.7043    0.9634    6.0151 O.2       1 UNK         0.0000 
     42 C42         2.1152   -0.9559    4.7444 C.ar      1 UNK         0.0000 
     43 C43         2.4179   -1.5961    3.5107 C.ar      1 UNK         0.0000 
     44 O44         2.4266   -1.3224    2.1707 O.co2     1 UNK         0.0000 
     45 C45         2.9082   -2.6829    3.4393 C.ar      1 UNK         0.0000 
     46 O46         3.1142   -2.6930    2.1091 O.co2     1 UNK         0.0000 
     47 C47         3.1962   -3.5412    4.4976 C.ar      1 UNK         0.0000 
     48 C48         2.8793   -3.0574    5.7786 C.ar      1 UNK         0.0000 
     49 C49         2.3522   -1.7487    5.9078 C.ar      1 UNK         0.0000 
     50 H50        -3.3392   -4.5242   -1.0638 H         1 UNK         0.0000 
     51 H51        -1.7074   -6.1370   -1.8753 H         1 UNK         0.0000 
     52 H52         0.6257   -6.0994   -1.0105 H         1 UNK         0.0000 
     53 H53        -2.0911   -0.8316    1.3961 H         1 UNK         0.0000 
     54 H54        -5.0145   -0.7539    1.0177 H         1 UNK         0.0000 
     55 H55        -4.5799   -1.3491    2.6501 H         1 UNK         0.0000 
     56 H56        -5.1898    0.8572    2.7857 H         1 UNK         0.0000 
     57 H57        -3.4446    0.9248    3.1048 H         1 UNK         0.0000 
     58 H58        -4.8136    1.4238    0.3254 H         1 UNK         0.0000 
     59 H59        -4.7483    2.6953    1.5306 H         1 UNK         0.0000 
     60 H60        -0.9634    5.0180   -2.3069 H         1 UNK         0.0000 
     61 H61        -0.4331    4.3634   -3.9035 H         1 UNK         0.0000 
     62 H62         0.6296    4.1735   -2.4561 H         1 UNK         0.0000 
     63 H63         3.5142   -2.9798   -3.3666 H         1 UNK         0.0000 
     64 H64         2.3081   -1.7469   -5.1731 H         1 UNK         0.0000 
     65 H65         0.8003    0.1219   -4.5978 H         1 UNK         0.0000 
     66 H66        -2.8012    3.1913    2.6732 H         1 UNK         0.0000 
     67 H67        -1.9562    4.0771    1.3859 H         1 UNK         0.0000 
     68 H68        -1.0458    1.3222    2.4813 H         1 UNK         0.0000 
     69 H69        -0.0785    2.4572    1.4772 H         1 UNK         0.0000 
     70 H70        -0.3464    4.1708    3.4261 H         1 UNK         0.0000 
     71 H71        -1.0492    2.8013    4.3659 H         1 UNK         0.0000 
     72 H72         1.3198    3.0745    4.8997 H         1 UNK         0.0000 
     73 H73         1.7721    3.1103    3.1697 H         1 UNK         0.0000 
     74 H74         1.1655    0.7806    2.9201 H         1 UNK         0.0000 
     75 H75         3.6442   -4.5140    4.3414 H         1 UNK         0.0000 
     76 H76         3.0686   -3.6639    6.6542 H         1 UNK         0.0000 
     77 H77         2.1503   -1.3632    6.8987 H         1 UNK         0.0000 
@<TRIPOS>BOND
     1    1    6 nc   
     2    1    8 nc   
     3    1   29 nc   
     4    1   31 nc   
     5    1   44 nc   
     6    1   46 nc   
     7    2    9 ar   
     8    2    3 ar   
     9    2   50 1    
    10    3    4 ar   
    11    3   51 1    
    12    4    5 ar   
    13    4   52 1    
    14    5    7 ar   
    15    5    6 1    
    16    7    8 1    
    17    7    9 ar   
    18    9   10 1    
    19   10   12 am   BACKBONE|DICT|INTERRES
    20   10   11 2    
    21   12   53 1    
    22   12   13 1    
    23   13   14 1    
    24   13   55 1    
    25   13   54 1    
    26   14   56 1    
    27   14   57 1    
    28   14   15 1    
    29   15   59 1    
    30   15   16 1    
    31   15   58 1    
    32   16   35 1    
    33   16   17 am   BACKBONE|DICT|INTERRES
    34   17   18 2    
    35   17   19 1    
    36   19   21 1    
    37   19   20 1    
    38   19   24 1    
    39   21   22 2    
    40   22   23 1    
    41   22   27 1    
    42   23   24 1    
    43   24   25 1    
    44   24   26 1    
    45   26   62 1    
    46   26   60 1    
    47   26   61 1    
    48   27   28 ar   
    49   27   34 ar   
    50   28   29 1    
    51   28   30 ar   
    52   30   31 1    
    53   30   32 ar   
    54   32   33 ar   
    55   32   63 1    
    56   33   34 ar   
    57   33   64 1    
    58   34   65 1    
    59   35   36 1    
    60   35   66 1    
    61   35   67 1    
    62   36   68 1    
    63   36   37 1    
    64   36   69 1    
    65   37   38 1    
    66   37   71 1    
    67   37   70 1    
    68   38   72 1    
    69   38   39 1    
    70   38   73 1    
    71   39   40 am   BACKBONE|DICT|INTERRES
    72   39   74 1    
    73   40   41 2    
    74   40   42 1    
    75   42   49 ar   
    76   42   43 ar   
    77   43   44 1    
    78   43   45 ar   
    79   45   47 ar   
    80   45   46 1    
    81   47   48 ar   
    82   47   75 1    
    83   48   49 ar   
    84   48   76 1    
    85   49   77 1    
@<TRIPOS>SUBSTRUCTURE
     1 UNK         1 GROUP             0       ****    0 ROOT    
