@<TRIPOS>MOLECULE
072_B_c1
103   110    1
SMALL
USER_CHARGES


@<TRIPOS>ATOM
      1 Fe1        -0.8518   -5.4616   -0.6098 Fe        1 UNK         0.0000 
      2 C2         -1.6398   -4.2136    4.7140 C.ar      1 UNK         0.0000 
      3 C3         -1.5490   -5.5917    4.8315 C.ar      1 UNK         0.0000 
      4 C4         -1.5537   -6.3856    3.6907 C.ar      1 UNK         0.0000 
      5 C5         -1.7055   -5.8294    2.4198 C.ar      1 UNK         0.0000 
      6 O6         -1.7075   -6.6655    1.4413 O.co2     1 UNK         0.0000 
      7 C7         -1.8424   -4.4146    2.3021 C.ar      1 UNK         0.0000 
      8 O8         -2.0660   -3.8905    1.1646 O.co2     1 UNK         0.0000 
      9 C9         -1.7617   -3.5778    3.4589 C.ar      1 UNK         0.0000 
     10 C10        -1.8410   -2.0306    3.4031 C.2       1 UNK         0.0000 
     11 O11        -1.6591   -1.3229    2.4007 O.2       1 UNK         0.0000 
     12 N12        -2.1560   -1.4157    4.5598 N.am      1 UNK         0.0000 
     13 C13        -2.3823    0.0257    4.7001 C.3       1 UNK         0.0000 
     14 C14        -1.0883    0.8592    4.6048 C.2       1 UNK         0.0000 
     15 O15        -0.0918    0.5859    5.2750 O.2       1 UNK         0.0000 
     16 N16        -1.1438    1.9850    3.8722 N.am      1 UNK         0.0000 
     17 C17        -0.0004    2.8814    3.5873 C.3       1 UNK         0.0000 
     18 H18         0.9313    2.3136    3.6646 H         1 UNK         0.0000 
     19 C19         0.1037    4.0742    4.5920 C.3       1 UNK         0.0000 
     20 H20         0.2448    3.6392    5.5839 H         1 UNK         0.0000 
     21 O21         1.2530    4.8702    4.3495 O.3       1 UNK         0.0000 
     22 C22        -1.1109    5.0197    4.6803 C.3       1 UNK         0.0000 
     23 C23        -0.1923    3.3085    2.1329 C.2       1 UNK         0.0000 
     24 O24        -1.2759    3.6869    1.6714 O.2       1 UNK         0.0000 
     25 O25         0.9424    3.1659    1.4108 O.3       1 UNK         0.0000 
     26 C26         0.9669    3.2910   -0.0138 C.3       1 UNK         0.0000 
     27 H27         0.1316    2.7194   -0.4281 H         1 UNK         0.0000 
     28 C28         0.8295    4.7883   -0.4113 C.3       1 UNK         0.0000 
     29 C29         2.3212    2.6514   -0.4818 C.3       1 UNK         0.0000 
     30 H30         3.0766    3.3595   -0.1372 H         1 UNK         0.0000 
     31 N31         2.7256    1.3965    0.2139 N.am      1 UNK         0.0000 
     32 C32         2.6575    0.0735   -0.0466 C.2       1 UNK         0.0000 
     33 O33         3.1216   -0.6570    0.8242 O.2       1 UNK         0.0000 
     34 C34         2.0194   -0.4768   -1.3445 C.3       1 UNK         0.0000 
     35 N35         2.2082   -1.9162   -1.5166 N.am      1 UNK         0.0000 
     36 C36         3.1943   -2.5540   -2.1542 C.2       1 UNK         0.0000 
     37 O37         4.0982   -1.9315   -2.7376 O.2       1 UNK         0.0000 
     38 C38         3.0783   -4.0849   -2.2184 C.ar      1 UNK         0.0000 
     39 C39         2.1676   -4.8488   -1.4137 C.ar      1 UNK         0.0000 
     40 O40         1.3820   -4.2658   -0.5713 O.co2     1 UNK         0.0000 
     41 C41         2.1036   -6.2613   -1.5971 C.ar      1 UNK         0.0000 
     42 O42         1.3142   -7.0492   -0.9577 O.co2     1 UNK         0.0000 
     43 C43         2.9138   -6.8635   -2.5711 C.ar      1 UNK         0.0000 
     44 C44         3.7972   -6.1233   -3.3486 C.ar      1 UNK         0.0000 
     45 C45         3.8847   -4.7521   -3.1642 C.ar      1 UNK         0.0000 
     46 C46         2.5329    2.6013   -1.9973 C.2       1 UNK         0.0000 
     47 O47         3.6494    2.4784   -2.5019 O.2       1 UNK         0.0000 
     48 O48         1.3893    2.7191   -2.7133 O.3       1 UNK         0.0000 
     49 C49         1.3846    2.8288   -4.1422 C.3       1 UNK         0.0000 
     50 H50         1.9754    2.0096   -4.5574 H         1 UNK         0.0000 
     51 C51         2.0441    4.1714   -4.5728 C.3       1 UNK         0.0000 
     52 C52        -0.0757    2.6983   -4.6834 C.3       1 UNK         0.0000 
     53 H53        -0.0253    2.9835   -5.7350 H         1 UNK         0.0000 
     54 C54        -1.0054    3.7775   -4.0559 C.2       1 UNK         0.0000 
     55 O55        -1.4258    3.4260   -2.8147 O.3       1 UNK         0.0000 
     56 O56        -1.2938    4.8204   -4.6018 O.2       1 UNK         0.0000 
     57 N57        -0.6062    1.3038   -4.7803 N.am      1 UNK         0.0000 
     58 C58        -1.8337    1.0126   -5.2613 C.2       1 UNK         0.0000 
     59 O59        -2.7037    1.8751   -5.3682 O.2       1 UNK         0.0000 
     60 C60        -2.1893   -0.3803   -5.8316 C.3       1 UNK         0.0000 
     61 N61        -1.4171   -1.5786   -5.4880 N.am      1 UNK         0.0000 
     62 C62        -1.3922   -2.1377   -4.2624 C.2       1 UNK         0.0000 
     63 O63        -1.5799   -1.3978   -3.2890 O.2       1 UNK         0.0000 
     64 C64        -1.2301   -3.6744   -4.2450 C.ar      1 UNK         0.0000 
     65 C65        -1.5979   -4.4968   -3.1325 C.ar      1 UNK         0.0000 
     66 O66        -1.9877   -3.9439   -2.0613 O.co2     1 UNK         0.0000 
     67 C67        -1.5148   -5.9082   -3.2036 C.ar      1 UNK         0.0000 
     68 O68        -1.8164   -6.7234   -2.2483 O.co2     1 UNK         0.0000 
     69 C69        -1.0505   -6.5035   -4.3671 C.ar      1 UNK         0.0000 
     70 C70        -0.6909   -5.7334   -5.4695 C.ar      1 UNK         0.0000 
     71 C71        -0.7820   -4.3486   -5.4083 C.ar      1 UNK         0.0000 
     72 H72        -1.6235   -3.6455    5.6267 H         1 UNK         0.0000 
     73 H73        -1.4795   -6.0687    5.7941 H         1 UNK         0.0000 
     74 H74        -1.4562   -7.4596    3.7755 H         1 UNK         0.0000 
     75 H75        -2.1289   -1.9948    5.3693 H         1 UNK         0.0000 
     76 H76        -3.0762    0.3343    3.9166 H         1 UNK         0.0000 
     77 H77        -2.8664    0.2364    5.6505 H         1 UNK         0.0000 
     78 H78        -1.9862    2.1839    3.3475 H         1 UNK         0.0000 
     79 H79         1.4049    5.4407    5.1084 H         1 UNK         0.0000 
     80 H80        -2.0225    4.4734    4.9236 H         1 UNK         0.0000 
     81 H81        -0.9709    5.7736    5.4569 H         1 UNK         0.0000 
     82 H82        -1.2807    5.5467    3.7405 H         1 UNK         0.0000 
     83 H83        -0.1225    5.2055   -0.0846 H         1 UNK         0.0000 
     84 H84         1.6225    5.3917    0.0297 H         1 UNK         0.0000 
     85 H85         0.8665    4.9262   -1.4908 H         1 UNK         0.0000 
     86 H86         2.9560    1.5262    1.1856 H         1 UNK         0.0000 
     87 H87         0.9471   -0.2868   -1.3251 H         1 UNK         0.0000 
     88 H88         2.4465    0.0032   -2.2190 H         1 UNK         0.0000 
     89 H89         1.6579   -2.6007   -0.9793 H         1 UNK         0.0000 
     90 H90         2.8331   -7.9343   -2.7327 H         1 UNK         0.0000 
     91 H91         4.4166   -6.6165   -4.0793 H         1 UNK         0.0000 
     92 H92         4.5800   -4.1859   -3.7656 H         1 UNK         0.0000 
     93 H93         3.0961    4.2122   -4.2917 H         1 UNK         0.0000 
     94 H94         1.5559    5.0283   -4.1066 H         1 UNK         0.0000 
     95 H95         2.0001    4.3119   -5.6527 H         1 UNK         0.0000 
     96 H96         0.0140    0.5320   -4.5722 H         1 UNK         0.0000 
     97 H97        -3.2259   -0.5816   -5.5610 H         1 UNK         0.0000 
     98 H98        -2.1852   -0.2765   -6.9158 H         1 UNK         0.0000 
     99 H99        -1.1598   -2.2094   -6.2188 H         1 UNK         0.0000 
    100 H100       -0.9612   -7.5806   -4.4095 H         1 UNK         0.0000 
    101 H101       -0.3686   -6.2349   -6.3671 H         1 UNK         0.0000 
    102 H102       -0.5254   -3.8106   -6.3056 H         1 UNK         0.0000 
    103 H103       -2.0903    4.0689   -2.5661 H         1 UNK         0.0000 
@<TRIPOS>BOND
     1    1    6 nc   
     2    1    8 nc   
     3    1   40 nc   
     4    1   42 nc   
     5    1   66 nc   
     6    1   68 nc   
     7    2    3 ar   
     8    2   72 1    
     9    2    9 ar   
    10    3   73 1    
    11    3    4 ar   
    12    4    5 ar   
    13    4   74 1    
    14    5    6 1    
    15    5    7 ar   
    16    7    9 ar   
    17    7    8 1    
    18    9   10 1    
    19   10   12 am   BACKBONE|DICT|INTERRES
    20   10   11 2    
    21   12   75 1    
    22   12   13 1    
    23   13   77 1    
    24   13   14 1    
    25   13   76 1    
    26   14   15 2    
    27   14   16 am   BACKBONE|DICT|INTERRES
    28   16   78 1    
    29   16   17 1    
    30   17   18 1    
    31   17   19 1    
    32   17   23 1    
    33   19   22 1    
    34   19   20 1    
    35   19   21 1    
    36   21   79 1    
    37   22   80 1    
    38   22   81 1    
    39   22   82 1    
    40   23   24 2    
    41   23   25 1    
    42   25   26 1    
    43   26   27 1    
    44   26   28 1    
    45   26   29 1    
    46   28   83 1    
    47   28   84 1    
    48   28   85 1    
    49   29   30 1    
    50   29   31 1    
    51   29   46 1    
    52   31   86 1    
    53   31   32 am   BACKBONE|DICT|INTERRES
    54   32   33 2    
    55   32   34 1    
    56   34   35 1    
    57   34   87 1    
    58   34   88 1    
    59   35   89 1    
    60   35   36 am   BACKBONE|DICT|INTERRES
    61   36   37 2    
    62   36   38 1    
    63   38   39 ar   
    64   38   45 ar   
    65   39   40 1    
    66   39   41 ar   
    67   41   42 1    
    68   41   43 ar   
    69   43   44 ar   
    70   43   90 1    
    71   44   45 ar   
    72   44   91 1    
    73   45   92 1    
    74   46   47 2    
    75   46   48 1    
    76   48   49 1    
    77   49   50 1    
    78   49   51 1    
    79   49   52 1    
    80   51   93 1    
    81   51   94 1    
    82   51   95 1    
    83   52   53 1    
    84   52   54 1    
    85   52   57 1    
    86   54   55 1    
    87   54   56 2    
    88   55  103 1    
    89   57   58 am   BACKBONE|DICT|INTERRES
    90   57   96 1    
    91   58   59 2    
    92   58   60 1    
    93   60   61 1    
    94   60   97 1    
    95   60   98 1    
    96   61   62 am   BACKBONE|DICT|INTERRES
    97   61   99 1    
    98   62   63 2    
    99   62   64 1    
   100   64   65 ar   
   101   64   71 ar   
   102   65   67 ar   
   103   65   66 1    
   104   67   68 1    
   105   67   69 ar   
   106   69  100 1    
   107   69   70 ar   
   108   70   71 ar   
   109   70  101 1    
   110   71  102 1    
@<TRIPOS>SUBSTRUCTURE
     1 UNK         1 GROUP             0       ****    0 ROOT    
