@<TRIPOS>MOLECULE
104_c2
115   120    1
SMALL
USER_CHARGES


@<TRIPOS>ATOM
      1 Fe1        -0.2056   -2.8445    0.2181 Fe        1 UNK         0.0000 
      2 O2         -2.0590   -4.1211    0.1371 O.co2     1 UNK         0.0000 
      3 N3         -1.5793   -5.3698    0.1824 N.am      1 UNK         0.0000 
      4 C4         -2.6082   -6.4086    0.2189 C.3       1 UNK         0.0000 
      5 C5         -3.4914   -6.3175    1.4834 C.3       1 UNK         0.0000 
      6 C6         -2.7577   -6.7395    2.7767 C.3       1 UNK         0.0000 
      7 C7         -3.3702   -6.2013    4.0842 C.3       1 UNK         0.0000 
      8 N8         -3.0331   -4.8017    4.3500 N.am      1 UNK         0.0000 
      9 C9         -1.8318   -4.3763    4.7657 C.2       1 UNK         0.0000 
     10 O10        -0.8893   -5.1329    4.9813 O.2       1 UNK         0.0000 
     11 C11        -1.6649   -2.8617    4.9582 C.3       1 UNK         0.0000 
     12 C12        -0.2575   -2.3005    4.6226 C.3       1 UNK         0.0000 
     13 C13         0.0235   -2.1560    3.1100 C.2       1 UNK         0.0000 
     14 O14        -0.3813   -2.9458    2.2500 O.co2     1 UNK         0.0000 
     15 N15         0.6879   -1.1239    2.5557 N.am      1 UNK         0.0000 
     16 O16         0.8305   -1.1358    1.2293 O.co2     1 UNK         0.0000 
     17 C17         1.1241    0.0849    3.2728 C.3       1 UNK         0.0000 
     18 C18         1.7016    1.2127    2.3937 C.3       1 UNK         0.0000 
     19 C19         1.9269    2.5076    3.1721 C.3       1 UNK         0.0000 
     20 C20         2.3658    3.6467    2.2457 C.3       1 UNK         0.0000 
     21 C21         2.5228    4.9418    3.0372 C.3       1 UNK         0.0000 
     22 N22         2.7693    6.0927    2.1770 N.am      1 UNK         0.0000 
     23 C23         1.9379    7.1351    2.0717 C.2       1 UNK         0.0000 
     24 O24         0.8840    7.2235    2.6918 O.2       1 UNK         0.0000 
     25 C25         2.4034    8.2769    1.1594 C.3       1 UNK         0.0000 
     26 C26         1.4516    9.5018    1.0562 C.3       1 UNK         0.0000 
     27 C27         0.1248    9.2826    0.2893 C.2       1 UNK         0.0000 
     28 O28        -0.9252    9.2862    0.9325 O.2       1 UNK         0.0000 
     29 N29         0.1274    9.1366   -1.0645 N.am      1 UNK         0.0000 
     30 O30         1.3741    9.0515   -1.7186 O.3       1 UNK         0.0000 
     31 C31        -1.0395    8.7906   -1.8905 C.3       1 UNK         0.0000 
     32 C32        -1.5565    7.3410   -1.7236 C.3       1 UNK         0.0000 
     33 C33        -0.7083    6.2420   -2.3985 C.3       1 UNK         0.0000 
     34 C34        -1.4262    4.8736   -2.3861 C.3       1 UNK         0.0000 
     35 C35        -0.7920    3.8417   -3.3240 C.3       1 UNK         0.0000 
     36 N36        -1.6287    2.6498   -3.4275 N.am      1 UNK         0.0000 
     37 C37        -1.1712    1.3972   -3.4069 C.2       1 UNK         0.0000 
     38 O38         0.0200    1.1157   -3.3328 O.2       1 UNK         0.0000 
     39 C39        -2.2400    0.2914   -3.4708 C.3       1 UNK         0.0000 
     40 C40        -1.7072   -1.1478   -3.6491 C.3       1 UNK         0.0000 
     41 C41        -0.9679   -1.6945   -2.4151 C.2       1 UNK         0.0000 
     42 O42        -1.4396   -1.6827   -1.2661 O.co2     1 UNK         0.0000 
     43 N43         0.2472   -2.2951   -2.4532 N.am      1 UNK         0.0000 
     44 O44         0.6961   -2.6722   -1.2735 O.co2     1 UNK         0.0000 
     45 C45         0.9678   -2.8207   -3.6255 C.3       1 UNK         0.0000 
     46 C46         1.1276   -4.3619   -3.5644 C.3       1 UNK         0.0000 
     47 C47         2.0475   -4.9645   -4.6367 C.3       1 UNK         0.0000 
     48 C48         2.3258   -6.4785   -4.4646 C.3       1 UNK         0.0000 
     49 C49         3.2213   -6.8823   -3.2704 C.3       1 UNK         0.0000 
     50 N50         2.5131   -7.0455   -1.9928 N.am      1 UNK         0.0000 
     51 C51         2.7868   -6.3799   -0.8592 C.2       1 UNK         0.0000 
     52 O52         3.6344   -5.4981   -0.7848 O.2       1 UNK         0.0000 
     53 C53         2.0323   -6.7885    0.4169 C.3       1 UNK         0.0000 
     54 C54         0.4813   -6.9032    0.3212 C.3       1 UNK         0.0000 
     55 C55        -0.2434   -5.5456    0.3000 C.2       1 UNK         0.0000 
     56 O56         0.3571   -4.4684    0.3774 O.co2     1 UNK         0.0000 
     57 H57        -2.1925   -7.4121    0.1371 H         1 UNK         0.0000 
     58 H58        -3.2192   -6.2944   -0.6750 H         1 UNK         0.0000 
     59 H59        -3.8665   -5.2951    1.5609 H         1 UNK         0.0000 
     60 H60        -4.3738   -6.9454    1.3474 H         1 UNK         0.0000 
     61 H61        -1.7123   -6.4285    2.7450 H         1 UNK         0.0000 
     62 H62        -2.7404   -7.8294    2.7952 H         1 UNK         0.0000 
     63 H63        -4.4556   -6.2866    4.0397 H         1 UNK         0.0000 
     64 H64        -3.0694   -6.8342    4.9202 H         1 UNK         0.0000 
     65 H65        -3.7330   -4.1136    4.1327 H         1 UNK         0.0000 
     66 H66        -2.4440   -2.2777    4.4674 H         1 UNK         0.0000 
     67 H67        -1.8313   -2.7115    6.0257 H         1 UNK         0.0000 
     68 H68         0.5291   -2.8607    5.1281 H         1 UNK         0.0000 
     69 H69        -0.2044   -1.3074    5.0650 H         1 UNK         0.0000 
     70 H70         1.8376   -0.1758    4.0533 H         1 UNK         0.0000 
     71 H71         0.2699    0.5077    3.8028 H         1 UNK         0.0000 
     72 H72         1.0011    1.4107    1.5781 H         1 UNK         0.0000 
     73 H73         2.6383    0.8861    1.9341 H         1 UNK         0.0000 
     74 H74         0.9941    2.7891    3.6663 H         1 UNK         0.0000 
     75 H75         2.6691    2.3469    3.9568 H         1 UNK         0.0000 
     76 H76         1.6249    3.7864    1.4540 H         1 UNK         0.0000 
     77 H77         3.3062    3.3838    1.7560 H         1 UNK         0.0000 
     78 H78         3.3220    4.8399    3.7708 H         1 UNK         0.0000 
     79 H79         1.6226    5.0817    3.6430 H         1 UNK         0.0000 
     80 H80         3.6548    6.1309    1.7008 H         1 UNK         0.0000 
     81 H81         3.3103    8.6403    1.6421 H         1 UNK         0.0000 
     82 H82         2.7419    7.9266    0.1862 H         1 UNK         0.0000 
     83 H83         1.2781    9.9260    2.0471 H         1 UNK         0.0000 
     84 H84         1.9838   10.2981    0.5374 H         1 UNK         0.0000 
     85 H85         1.4653    9.9110   -2.1473 H         1 UNK         0.0000 
     86 H86        -1.8533    9.4905   -1.6918 H         1 UNK         0.0000 
     87 H87        -0.7848    8.9512   -2.9403 H         1 UNK         0.0000 
     88 H88        -2.5511    7.3060   -2.1705 H         1 UNK         0.0000 
     89 H89        -1.6958    7.1078   -0.6648 H         1 UNK         0.0000 
     90 H90         0.2581    6.1563   -1.8940 H         1 UNK         0.0000 
     91 H91        -0.4960    6.5428   -3.4278 H         1 UNK         0.0000 
     92 H92        -1.4175    4.4780   -1.3677 H         1 UNK         0.0000 
     93 H93        -2.4768    5.0049   -2.6578 H         1 UNK         0.0000 
     94 H94         0.2236    3.6213   -2.9836 H         1 UNK         0.0000 
     95 H95        -0.6645    4.2635   -4.3208 H         1 UNK         0.0000 
     96 H96        -2.6160    2.7915   -3.5563 H         1 UNK         0.0000 
     97 H97        -2.9215    0.3429   -2.6229 H         1 UNK         0.0000 
     98 H98        -2.8576    0.5102   -4.3405 H         1 UNK         0.0000 
     99 H99        -2.5545   -1.8148   -3.7888 H         1 UNK         0.0000 
    100 H100       -1.1769   -1.2322   -4.5937 H         1 UNK         0.0000 
    101 H101        0.5080   -2.5579   -4.5782 H         1 UNK         0.0000 
    102 H102        1.9504   -2.3446   -3.6629 H         1 UNK         0.0000 
    103 H103        0.1335   -4.8062   -3.6328 H         1 UNK         0.0000 
    104 H104        1.5341   -4.6401   -2.5949 H         1 UNK         0.0000 
    105 H105        2.9977   -4.4257   -4.6341 H         1 UNK         0.0000 
    106 H106        1.5986   -4.7867   -5.6168 H         1 UNK         0.0000 
    107 H107        2.8353   -6.7994   -5.3704 H         1 UNK         0.0000 
    108 H108        1.3939   -7.0432   -4.4482 H         1 UNK         0.0000 
    109 H109        4.0463   -6.1708   -3.1847 H         1 UNK         0.0000 
    110 H110        3.7063   -7.8301   -3.4981 H         1 UNK         0.0000 
    111 H111        1.8497   -7.8002   -1.9396 H         1 UNK         0.0000 
    112 H112        2.4392   -7.7640    0.6671 H         1 UNK         0.0000 
    113 H113        2.3329   -6.1810    1.2747 H         1 UNK         0.0000 
    114 H114        0.1777   -7.5778   -0.4799 H         1 UNK         0.0000 
    115 H115        0.1519   -7.3660    1.2494 H         1 UNK         0.0000 
@<TRIPOS>BOND
     1    1    2 nc   
     2    1   14 nc   
     3    1   16 nc   
     4    1   42 nc   
     5    1   44 nc   
     6    1   56 nc   
     7    2    3 1    
     8    3    4 1    
     9    3   55 am   BACKBONE|DICT|INTERRES
    10    4    5 1    
    11    4   57 1    
    12    4   58 1    
    13    5   59 1    
    14    5    6 1    
    15    5   60 1    
    16    6    7 1    
    17    6   61 1    
    18    6   62 1    
    19    7    8 1    
    20    7   64 1    
    21    7   63 1    
    22    8    9 am   BACKBONE|DICT|INTERRES
    23    8   65 1    
    24    9   10 2    
    25    9   11 1    
    26   11   67 1    
    27   11   12 1    
    28   11   66 1    
    29   12   68 1    
    30   12   69 1    
    31   12   13 1    
    32   13   14 2    
    33   13   15 am   BACKBONE|DICT|INTERRES
    34   15   17 1    
    35   15   16 1    
    36   17   71 1    
    37   17   70 1    
    38   17   18 1    
    39   18   19 1    
    40   18   72 1    
    41   18   73 1    
    42   19   74 1    
    43   19   75 1    
    44   19   20 1    
    45   20   21 1    
    46   20   76 1    
    47   20   77 1    
    48   21   79 1    
    49   21   78 1    
    50   21   22 1    
    51   22   23 am   BACKBONE|DICT|INTERRES
    52   22   80 1    
    53   23   24 2    
    54   23   25 1    
    55   25   81 1    
    56   25   26 1    
    57   25   82 1    
    58   26   83 1    
    59   26   27 1    
    60   26   84 1    
    61   27   28 2    
    62   27   29 am   BACKBONE|DICT|INTERRES
    63   29   30 1    
    64   29   31 1    
    65   30   85 1    
    66   31   32 1    
    67   31   86 1    
    68   31   87 1    
    69   32   89 1    
    70   32   33 1    
    71   32   88 1    
    72   33   34 1    
    73   33   90 1    
    74   33   91 1    
    75   34   92 1    
    76   34   35 1    
    77   34   93 1    
    78   35   94 1    
    79   35   36 1    
    80   35   95 1    
    81   36   37 am   BACKBONE|DICT|INTERRES
    82   36   96 1    
    83   37   38 2    
    84   37   39 1    
    85   39   97 1    
    86   39   40 1    
    87   39   98 1    
    88   40   41 1    
    89   40   99 1    
    90   40  100 1    
    91   41   42 2    
    92   41   43 am   BACKBONE|DICT|INTERRES
    93   43   44 1    
    94   43   45 1    
    95   45  102 1    
    96   45   46 1    
    97   45  101 1    
    98   46  104 1    
    99   46   47 1    
   100   46  103 1    
   101   47  105 1    
   102   47   48 1    
   103   47  106 1    
   104   48   49 1    
   105   48  107 1    
   106   48  108 1    
   107   49  109 1    
   108   49   50 1    
   109   49  110 1    
   110   50  111 1    
   111   50   51 am   BACKBONE|DICT|INTERRES
   112   51   53 1    
   113   51   52 2    
   114   53  112 1    
   115   53  113 1    
   116   53   54 1    
   117   54  115 1    
   118   54   55 1    
   119   54  114 1    
   120   55   56 2    
@<TRIPOS>SUBSTRUCTURE
     1 UNK         1 GROUP             0       ****    0 ROOT    
