@<TRIPOS>MOLECULE
011_r1_c1
85   94    1
SMALL
USER_CHARGES


@<TRIPOS>ATOM
      1 Fe1         0.0000    0.0000    0.0000 Fe        1 UNK         0.0000 
      2 C2         -2.3443   -7.1414   -0.0104 C.ar      1 UNK         0.0000 
      3 N3         -2.8986   -8.0605    0.8112 N.2       1 UNK         0.0000 
      4 C4         -1.8728   -8.6571    1.4437 C.ar      1 UNK         0.0000 
      5 N5         -0.6844   -8.1604    1.0492 N.pl3     1 UNK         0.0000 
      6 H6          0.2616   -8.4572    1.3842 H         1 UNK         0.0000 
      7 C7         -0.9712   -7.2054    0.1417 C.ar      1 UNK         0.0000 
      8 C8          0.0545   -6.3729   -0.5679 C.3       1 UNK         0.0000 
      9 C9         -0.1164   -4.8772   -0.2660 C.3       1 UNK         0.0000 
     10 N10         0.9459   -4.0794   -0.8693 N.am      1 UNK         0.0000 
     11 O11         1.9381   -4.6260   -1.6040 O.3       1 UNK         0.0000 
     12 C12         2.4923   -3.5088   -2.2702 C.3       1 UNK         0.0000 
     13 H13         1.8705   -3.3332   -3.1797 H         1 UNK         0.0000 
     14 C14         3.9372   -3.7582   -2.6949 C.3       1 UNK         0.0000 
     15 C15         2.3689   -2.3215   -1.3040 C.3       1 UNK         0.0000 
     16 H16         3.1523   -2.3781   -0.5169 H         1 UNK         0.0000 
     17 C17         1.0744   -2.7520   -0.6921 C.2       1 UNK         0.0000 
     18 O18         0.2900   -2.0707   -0.0257 O.co2     1 UNK         0.0000 
     19 N19         2.3933   -1.0105   -1.9577 N.am      1 UNK         0.0000 
     20 C20         2.2399    0.1238   -1.2113 C.2       1 UNK         0.0000 
     21 O21         2.0800    0.0000    0.0000 O.co2     1 UNK         0.0000 
     22 C22         1.9565    1.4771   -1.7972 C.ar      1 UNK         0.0000 
     23 C23         1.0979    2.4219   -1.1092 C.ar      1 UNK         0.0000 
     24 O24         0.3779    2.0707    0.0257 O.co2     1 UNK         0.0000 
     25 C25         0.8770    3.6901   -1.6894 C.ar      1 UNK         0.0000 
     26 O26         0.0911    4.5920   -1.0634 O.3       1 UNK         0.0000 
     27 C27         1.4174    3.9935   -2.9468 C.ar      1 UNK         0.0000 
     28 C28         2.1693    3.0490   -3.6419 C.ar      1 UNK         0.0000 
     29 C29         2.4441    1.8066   -3.0727 C.ar      1 UNK         0.0000 
     30 H30        -2.8989   -6.4822   -0.6613 H         1 UNK         0.0000 
     31 H31        -0.0224   -6.5491   -1.6624 H         1 UNK         0.0000 
     32 H32         1.0631   -6.6968   -0.2273 H         1 UNK         0.0000 
     33 H33        -0.0852   -4.7368    0.8377 H         1 UNK         0.0000 
     34 H34        -1.1045   -4.5250   -0.6407 H         1 UNK         0.0000 
     35 H35         4.3287   -2.8672   -3.2304 H         1 UNK         0.0000 
     36 H36         4.5683   -3.9623   -1.8066 H         1 UNK         0.0000 
     37 H37         3.9777   -4.6335   -3.3775 H         1 UNK         0.0000 
     38 H38         2.4430   -0.9610   -2.9848 H         1 UNK         0.0000 
     39 H39        -0.1264    5.4500   -1.4536 H         1 UNK         0.0000 
     40 H40         1.2121    4.9502   -3.4109 H         1 UNK         0.0000 
     41 H41         2.5353    3.2779   -4.6346 H         1 UNK         0.0000 
     42 H42         3.0307    1.1004   -3.6437 H         1 UNK         0.0000 
     43 C43         2.3398    0.0078    7.1460 C.ar      1 UNK         0.0000 
     44 N44         2.8928   -0.8121    8.0599 N.pl3     1 UNK         0.0000 
     45 H45         3.9094   -0.9317    8.2661 H         1 UNK         0.0000 
     46 C46         1.8658   -1.4492    8.6582 C.ar      1 UNK         0.0000 
     47 N47         0.6802   -1.0584    8.1525 N.2       1 UNK         0.0000 
     48 C48         0.9685   -0.1492    7.2039 C.ar      1 UNK         0.0000 
     49 C49        -0.0583    0.5633    6.3710 C.3       1 UNK         0.0000 
     50 C50         0.1172    0.2655    4.8743 C.3       1 UNK         0.0000 
     51 N51        -0.9413    0.8749    4.0804 N.am      1 UNK         0.0000 
     52 O52        -1.9364    1.6044    4.6265 O.3       1 UNK         0.0000 
     53 C53        -2.4909    2.2760    3.5065 C.3       1 UNK         0.0000 
     54 H54        -1.8643    3.1834    3.3330 H         1 UNK         0.0000 
     55 C55        -3.9325    2.6997    3.7552 C.3       1 UNK         0.0000 
     56 C56        -2.3667    1.3080    2.3225 C.3       1 UNK         0.0000 
     57 H57        -3.1505    0.5206    2.3776 H         1 UNK         0.0000 
     58 C58        -1.0714    0.6959    2.7514 C.2       1 UNK         0.0000 
     59 O59        -0.2900    0.0257    2.0707 O.co2     1 UNK         0.0000 
     60 N60        -2.3911    1.9594    1.0102 N.am      1 UNK         0.0000 
     61 C61        -2.2390    1.2114   -0.1241 C.2       1 UNK         0.0000 
     62 O62        -2.0800    0.0000    0.0000 O.co2     1 UNK         0.0000 
     63 C63        -1.9549    1.7982   -1.4771 C.ar      1 UNK         0.0000 
     64 C64        -1.0967    1.1100   -2.4218 C.ar      1 UNK         0.0000 
     65 O65        -0.3779   -0.0257   -2.0707 O.co2     1 UNK         0.0000 
     66 C66        -0.8744    1.6905   -3.6894 C.ar      1 UNK         0.0000 
     67 O67        -0.0879    1.0620   -4.5908 O.3       1 UNK         0.0000 
     68 C68        -1.4131    2.9488   -3.9921 C.ar      1 UNK         0.0000 
     69 C69        -2.1651    3.6439   -3.0477 C.ar      1 UNK         0.0000 
     70 C70        -2.4414    3.0740   -1.8060 C.ar      1 UNK         0.0000 
     71 H71         2.8954    0.6651    6.4913 H         1 UNK         0.0000 
     72 H72         0.0173    1.6574    6.5508 H         1 UNK         0.0000 
     73 H73        -1.0668    0.2204    6.6937 H         1 UNK         0.0000 
     74 H74         0.0812   -0.8358    4.7329 H         1 UNK         0.0000 
     75 H75         1.1045    0.6390    4.5263 H         1 UNK         0.0000 
     76 H76        -4.3241    3.2347    2.8644 H         1 UNK         0.0000 
     77 H77        -4.5656    1.8097    3.9562 H         1 UNK         0.0000 
     78 H78        -3.9775    3.3797    4.6317 H         1 UNK         0.0000 
     79 H79        -2.4399    2.9873    0.9598 H         1 UNK         0.0000 
     80 H80         0.1308    1.4547   -5.4484 H         1 UNK         0.0000 
     81 H81        -1.2063    3.4134   -4.9483 H         1 UNK         0.0000 
     82 H82        -2.5299    4.6371   -3.2760 H         1 UNK         0.0000 
     83 H83        -3.0279    3.6452   -1.0998 H         1 UNK         0.0000 
     84 H84        -2.0640   -9.4343    2.1688 H         1 UNK         0.0000 
     85 H85         2.0588   -2.1702    9.4388 H         1 UNK         0.0000 
@<TRIPOS>BOND
     1    1   18 nc   
     2    1   21 nc   
     3    1   24 nc   
     4    1   59 nc   
     5    1   62 nc   
     6    1   65 nc   
     7    2    7 ar   
     8    2    3 ar   
     9    2   30 1    
    10    3    4 ar   
    11    4    5 ar   
    12    4   84 1    
    13    5    6 1    
    14    5    7 ar   
    15    7    8 1    
    16    8    9 1    
    17    8   32 1    
    18    8   31 1    
    19    9   33 1    
    20    9   10 1    
    21    9   34 1    
    22   10   17 am   BACKBONE|DICT|INTERRES
    23   10   11 1    
    24   11   12 1    
    25   12   13 1    
    26   12   15 1    
    27   12   14 1    
    28   14   36 1    
    29   14   35 1    
    30   14   37 1    
    31   15   17 1    
    32   15   16 1    
    33   15   19 1    
    34   17   18 2    
    35   19   20 am   BACKBONE|DICT|INTERRES
    36   19   38 1    
    37   20   22 1    
    38   20   21 2    
    39   22   23 ar   
    40   22   29 ar   
    41   23   24 1    
    42   23   25 ar   
    43   25   26 1    
    44   25   27 ar   
    45   26   39 1    
    46   27   28 ar   
    47   27   40 1    
    48   28   29 ar   
    49   28   41 1    
    50   29   42 1    
    51   43   48 ar   
    52   43   44 ar   
    53   43   71 1    
    54   44   45 1    
    55   44   46 ar   
    56   46   47 ar   
    57   46   85 1    
    58   47   48 ar   
    59   48   49 1    
    60   49   72 1    
    61   49   73 1    
    62   49   50 1    
    63   50   51 1    
    64   50   74 1    
    65   50   75 1    
    66   51   52 1    
    67   51   58 am   BACKBONE|DICT|INTERRES
    68   52   53 1    
    69   53   54 1    
    70   53   55 1    
    71   53   56 1    
    72   55   77 1    
    73   55   78 1    
    74   55   76 1    
    75   56   57 1    
    76   56   58 1    
    77   56   60 1    
    78   58   59 2    
    79   60   61 am   BACKBONE|DICT|INTERRES
    80   60   79 1    
    81   61   63 1    
    82   61   62 2    
    83   63   64 ar   
    84   63   70 ar   
    85   64   65 1    
    86   64   66 ar   
    87   66   67 1    
    88   66   68 ar   
    89   67   80 1    
    90   68   69 ar   
    91   68   81 1    
    92   69   70 ar   
    93   69   82 1    
    94   70   83 1    
@<TRIPOS>SUBSTRUCTURE
     1 UNK         1 GROUP             0       ****    0 ROOT    
