@<TRIPOS>MOLECULE
201_c1
109   117    1
SMALL
USER_CHARGES


@<TRIPOS>ATOM
      1 Fe1         0.1133    5.2905    0.1028 Fe        1 UNK         0.0000 
      2 C2          2.7034    4.1514    4.5759 C.ar      1 UNK         0.0000 
      3 C3          2.3933    5.4981    4.8359 C.ar      1 UNK         0.0000 
      4 C4          1.9642    6.3247    3.8015 C.ar      1 UNK         0.0000 
      5 C5          1.7966    5.7962    2.5278 C.ar      1 UNK         0.0000 
      6 O6          1.3205    6.4610    1.5693 O.co2     1 UNK         0.0000 
      7 C7          2.0070    4.4243    2.3014 C.ar      1 UNK         0.0000 
      8 O8          1.5653    4.0041    1.1900 O.co2     1 UNK         0.0000 
      9 C9          2.5492    3.5959    3.2943 C.ar      1 UNK         0.0000 
     10 C10         2.9977    2.1624    3.0321 C.2       1 UNK         0.0000 
     11 O11         3.5499    1.7882    1.9974 O.2       1 UNK         0.0000 
     12 N12         2.8354    1.3019    4.0662 N.am      1 UNK         0.0000 
     13 C13         3.0829   -0.1484    3.9575 C.3       1 UNK         0.0000 
     14 H14         3.9054   -0.3179    3.2571 H         1 UNK         0.0000 
     15 C15         3.5113   -0.7593    5.3022 C.3       1 UNK         0.0000 
     16 C16         1.8024   -0.8350    3.4665 C.2       1 UNK         0.0000 
     17 O17         0.7433   -0.5832    4.0454 O.2       1 UNK         0.0000 
     18 N18         1.9223   -1.7485    2.4776 N.am      1 UNK         0.0000 
     19 C19         0.7891   -2.3644    1.7303 C.3       1 UNK         0.0000 
     20 H20         0.4503   -1.5680    1.0589 H         1 UNK         0.0000 
     21 C21         1.2357   -3.5146    0.7669 C.3       1 UNK         0.0000 
     22 H22         2.1292   -3.1419    0.2539 H         1 UNK         0.0000 
     23 C23         1.5850   -4.8642    1.4283 C.3       1 UNK         0.0000 
     24 O24         0.1988   -3.7250   -0.1946 O.3       1 UNK         0.0000 
     25 C25         0.4480   -3.9588   -1.4927 C.2       1 UNK         0.0000 
     26 O26         1.5596   -4.2633   -1.9345 O.2       1 UNK         0.0000 
     27 C27        -0.8052   -3.8010   -2.3784 C.3       1 UNK         0.0000 
     28 H28        -0.6314   -4.5497   -3.1594 H         1 UNK         0.0000 
     29 N29        -0.8673   -2.5442   -3.1940 N.am      1 UNK         0.0000 
     30 C30        -0.2627   -1.3441   -3.0452 C.2       1 UNK         0.0000 
     31 O31         0.4334   -1.0974   -2.0692 O.2       1 UNK         0.0000 
     32 C32        -0.3519   -0.4067   -4.2896 C.3       1 UNK         0.0000 
     33 H33        -1.1541   -0.7762   -4.9351 H         1 UNK         0.0000 
     34 C34         0.9432   -0.5507   -5.1428 C.3       1 UNK         0.0000 
     35 N35        -0.6665    1.0253   -4.0372 N.am      1 UNK         0.0000 
     36 C36         0.1760    1.9780   -3.5558 C.2       1 UNK         0.0000 
     37 O37         1.3436    1.7057   -3.2881 O.2       1 UNK         0.0000 
     38 C38        -0.3817    3.4111   -3.5341 C.ar      1 UNK         0.0000 
     39 C39         0.0324    4.4113   -2.6288 C.ar      1 UNK         0.0000 
     40 O40         0.7897    4.1725   -1.6576 O.co2     1 UNK         0.0000 
     41 C41        -0.4717    5.7218   -2.6772 C.ar      1 UNK         0.0000 
     42 O42        -0.1484    6.5297   -1.7560 O.co2     1 UNK         0.0000 
     43 C43        -1.4099    6.0643   -3.6497 C.ar      1 UNK         0.0000 
     44 C44        -1.8782    5.0803   -4.5199 C.ar      1 UNK         0.0000 
     45 C45        -1.3711    3.7790   -4.4600 C.ar      1 UNK         0.0000 
     46 C46        -2.1584   -4.2570   -1.6919 C.3       1 UNK         0.0000 
     47 H47        -2.9462   -4.1104   -2.4381 H         1 UNK         0.0000 
     48 C48        -2.1051   -5.7643   -1.3101 C.3       1 UNK         0.0000 
     49 O49        -2.5380   -3.4793   -0.5428 O.3       1 UNK         0.0000 
     50 C50        -3.7711   -3.5903    0.0592 C.2       1 UNK         0.0000 
     51 O51        -4.6881   -4.2904   -0.3794 O.2       1 UNK         0.0000 
     52 C52        -3.8690   -2.9005    1.4399 C.3       1 UNK         0.0000 
     53 H53        -4.7711   -3.2927    1.9134 H         1 UNK         0.0000 
     54 C54        -2.7346   -3.3690    2.4063 C.3       1 UNK         0.0000 
     55 H55        -2.9003   -2.8869    3.3783 H         1 UNK         0.0000 
     56 C56        -2.6549   -4.9062    2.6157 C.3       1 UNK         0.0000 
     57 O57        -1.5077   -2.8729    1.8999 O.3       1 UNK         0.0000 
     58 C58        -0.3731   -2.8518    2.6078 C.2       1 UNK         0.0000 
     59 O59        -0.2723   -3.2512    3.7726 O.2       1 UNK         0.0000 
     60 N60        -4.0661   -1.4117    1.4197 N.am      1 UNK         0.0000 
     61 C61        -4.8109   -0.7006    0.5428 C.2       1 UNK         0.0000 
     62 O62        -5.1742   -1.1483   -0.5529 O.2       1 UNK         0.0000 
     63 C63        -5.4516    0.6385    1.0266 C.3       1 UNK         0.0000 
     64 H64        -5.6880    1.1460    0.0857 H         1 UNK         0.0000 
     65 C65        -6.7736    0.3820    1.7545 C.3       1 UNK         0.0000 
     66 N66        -4.6762    1.6445    1.7852 N.am      1 UNK         0.0000 
     67 C67        -3.5047    2.1476    1.3495 C.2       1 UNK         0.0000 
     68 O68        -2.8825    1.5463    0.4824 O.2       1 UNK         0.0000 
     69 C69        -3.1539    3.5404    1.8696 C.ar      1 UNK         0.0000 
     70 C70        -2.2552    4.3828    1.2060 C.ar      1 UNK         0.0000 
     71 O71        -1.4234    4.0071    0.3471 O.co2     1 UNK         0.0000 
     72 C72        -2.0912    5.7245    1.5535 C.ar      1 UNK         0.0000 
     73 O73        -1.2448    6.3677    0.8857 O.co2     1 UNK         0.0000 
     74 C74        -2.7219    6.2576    2.6635 C.ar      1 UNK         0.0000 
     75 C75        -3.5338    5.4216    3.4235 C.ar      1 UNK         0.0000 
     76 C76        -3.7673    4.0913    3.0193 C.ar      1 UNK         0.0000 
     77 H77         3.0859    3.5450    5.3896 H         1 UNK         0.0000 
     78 H78         2.4973    5.9047    5.8398 H         1 UNK         0.0000 
     79 H79         1.6732    7.3550    3.9799 H         1 UNK         0.0000 
     80 H80         2.2228    1.6341    4.7945 H         1 UNK         0.0000 
     81 H81         4.4050   -0.2871    5.7035 H         1 UNK         0.0000 
     82 H82         2.7136   -0.6771    6.0344 H         1 UNK         0.0000 
     83 H83         3.7275   -1.8228    5.1880 H         1 UNK         0.0000 
     84 H84         2.7748   -1.6611    1.9412 H         1 UNK         0.0000 
     85 H85         2.3677   -4.7250    2.1790 H         1 UNK         0.0000 
     86 H86         0.7161   -5.2965    1.9232 H         1 UNK         0.0000 
     87 H87         1.9286   -5.5862    0.6885 H         1 UNK         0.0000 
     88 H88        -1.5101   -2.5715   -3.9656 H         1 UNK         0.0000 
     89 H89         0.9245    0.0620   -6.0488 H         1 UNK         0.0000 
     90 H90         1.8283   -0.2599   -4.5733 H         1 UNK         0.0000 
     91 H91         1.1286   -1.5876   -5.4402 H         1 UNK         0.0000 
     92 H92        -1.6371    1.3252   -4.0786 H         1 UNK         0.0000 
     93 H93        -1.8158    7.0674   -3.6492 H         1 UNK         0.0000 
     94 H94        -2.6730    5.3399   -5.2134 H         1 UNK         0.0000 
     95 H95        -1.7855    3.0515   -5.1466 H         1 UNK         0.0000 
     96 H96        -3.0618   -6.1374   -0.9556 H         1 UNK         0.0000 
     97 H97        -1.8225   -6.3789   -2.1646 H         1 UNK         0.0000 
     98 H98        -1.3827   -5.9458   -0.5165 H         1 UNK         0.0000 
     99 H99        -3.6127   -5.2886    2.9630 H         1 UNK         0.0000 
    100 H100       -1.9042   -5.1934    3.3537 H         1 UNK         0.0000 
    101 H101       -2.4012   -5.4150    1.6903 H         1 UNK         0.0000 
    102 H102       -3.8176   -0.8984    2.2599 H         1 UNK         0.0000 
    103 H103       -7.3727   -0.3241    1.1686 H         1 UNK         0.0000 
    104 H104       -7.3516    1.3035    1.8619 H         1 UNK         0.0000 
    105 H105       -6.5825   -0.0488    2.7387 H         1 UNK         0.0000 
    106 H106       -5.1296    2.2342    2.4647 H         1 UNK         0.0000 
    107 H107       -2.4724    7.2660    2.9483 H         1 UNK         0.0000 
    108 H108       -3.9520    5.8358    4.3356 H         1 UNK         0.0000 
    109 H109       -4.3913    3.4858    3.6535 H         1 UNK         0.0000 
@<TRIPOS>BOND
     1    1    6 nc   
     2    1    8 nc   
     3    1   40 nc   
     4    1   42 nc   
     5    1   71 nc   
     6    1   73 nc   
     7    2    3 ar   
     8    2   77 1    
     9    2    9 ar   
    10    3   78 1    
    11    3    4 ar   
    12    4   79 1    
    13    4    5 ar   
    14    5    6 1    
    15    5    7 ar   
    16    7    9 ar   
    17    7    8 1    
    18    9   10 1    
    19   10   12 am   BACKBONE|DICT|INTERRES
    20   10   11 2    
    21   12   80 1    
    22   12   13 1    
    23   13   14 1    
    24   13   15 1    
    25   13   16 1    
    26   15   81 1    
    27   15   82 1    
    28   15   83 1    
    29   16   17 2    
    30   16   18 am   BACKBONE|DICT|INTERRES
    31   18   19 1    
    32   18   84 1    
    33   19   20 1    
    34   19   58 1    
    35   19   21 1    
    36   21   22 1    
    37   21   23 1    
    38   21   24 1    
    39   23   86 1    
    40   23   85 1    
    41   23   87 1    
    42   24   25 1    
    43   25   26 2    
    44   25   27 1    
    45   27   28 1    
    46   27   46 1    
    47   27   29 1    
    48   29   30 am   BACKBONE|DICT|INTERRES
    49   29   88 1    
    50   30   31 2    
    51   30   32 1    
    52   32   33 1    
    53   32   35 1    
    54   32   34 1    
    55   34   90 1    
    56   34   89 1    
    57   34   91 1    
    58   35   36 am   BACKBONE|DICT|INTERRES
    59   35   92 1    
    60   36   37 2    
    61   36   38 1    
    62   38   39 ar   
    63   38   45 ar   
    64   39   40 1    
    65   39   41 ar   
    66   41   42 1    
    67   41   43 ar   
    68   43   44 ar   
    69   43   93 1    
    70   44   45 ar   
    71   44   94 1    
    72   45   95 1    
    73   46   47 1    
    74   46   48 1    
    75   46   49 1    
    76   48   96 1    
    77   48   98 1    
    78   48   97 1    
    79   49   50 1    
    80   50   52 1    
    81   50   51 2    
    82   52   60 1    
    83   52   53 1    
    84   52   54 1    
    85   54   56 1    
    86   54   55 1    
    87   54   57 1    
    88   56   99 1    
    89   56  100 1    
    90   56  101 1    
    91   57   58 1    
    92   58   59 2    
    93   60  102 1    
    94   60   61 am   BACKBONE|DICT|INTERRES
    95   61   63 1    
    96   61   62 2    
    97   63   64 1    
    98   63   65 1    
    99   63   66 1    
   100   65  104 1    
   101   65  105 1    
   102   65  103 1    
   103   66  106 1    
   104   66   67 am   BACKBONE|DICT|INTERRES
   105   67   69 1    
   106   67   68 2    
   107   69   76 ar   
   108   69   70 ar   
   109   70   72 ar   
   110   70   71 1    
   111   72   74 ar   
   112   72   73 1    
   113   74  107 1    
   114   74   75 ar   
   115   75  108 1    
   116   75   76 ar   
   117   76  109 1    
@<TRIPOS>SUBSTRUCTURE
     1 UNK         1 GROUP             0       ****    0 ROOT    
