@<TRIPOS>MOLECULE
108_c1
82   87    1
SMALL
USER_CHARGES


@<TRIPOS>ATOM
      1 Fe1        -0.3365    0.2481   -0.1287 Fe        1 UNK         0.0000 
      2 O2         -0.9923    1.9138   -1.5542 O.co2     1 UNK         0.0000 
      3 N3          0.0459    2.7199   -1.7688 N.am      1 UNK         0.0000 
      4 C4         -0.2555    3.7968   -2.7371 C.3       1 UNK         0.0000 
      5 C5         -0.0357    3.3808   -4.2190 C.3       1 UNK         0.0000 
      6 C6         -0.6394    2.0209   -4.6636 C.3       1 UNK         0.0000 
      7 C7          0.3233    0.8163   -4.5193 C.3       1 UNK         0.0000 
      8 N8         -0.3588   -0.4831   -4.5282 N.am      1 UNK         0.0000 
      9 C9          0.2707   -1.6646   -4.4596 C.2       1 UNK         0.0000 
     10 O10         1.4913   -1.7597   -4.5235 O.2       1 UNK         0.0000 
     11 C11        -0.5957   -2.9217   -4.2198 C.3       1 UNK         0.0000 
     12 C12        -1.4612   -2.9944   -2.9092 C.3       1 UNK         0.0000 
     13 C13        -0.9647   -2.1406   -1.7236 C.2       1 UNK         0.0000 
     14 O14        -1.3840   -0.9830   -1.6109 O.co2     1 UNK         0.0000 
     15 N15         0.0206   -2.5595   -0.8857 N.am      1 UNK         0.0000 
     16 O16         0.6887   -1.7432   -0.0679 O.co2     1 UNK         0.0000 
     17 C17         0.2804   -3.9790   -0.5789 C.3       1 UNK         0.0000 
     18 C18        -0.2545   -4.3682    0.8313 C.3       1 UNK         0.0000 
     19 C19         0.6615   -5.3363    1.6046 C.3       1 UNK         0.0000 
     20 C20         0.0751   -5.8654    2.9380 C.3       1 UNK         0.0000 
     21 C21        -0.5557   -4.8303    3.9004 C.3       1 UNK         0.0000 
     22 N22         0.2614   -3.6272    4.1073 N.am      1 UNK         0.0000 
     23 C23        -0.2438   -2.4181    4.3958 C.2       1 UNK         0.0000 
     24 O24        -1.4461   -2.2304    4.5642 O.2       1 UNK         0.0000 
     25 C25         0.7438   -1.2462    4.5042 C.3       1 UNK         0.0000 
     26 C26         0.1201    0.1661    4.2817 C.3       1 UNK         0.0000 
     27 C27        -0.3312    0.3933    2.8260 C.2       1 UNK         0.0000 
     28 O28         0.5034    0.2935    1.9200 O.co2     1 UNK         0.0000 
     29 N29        -1.6105    0.7167    2.4923 N.am      1 UNK         0.0000 
     30 O30        -2.0774    0.7168    1.2371 O.co2     1 UNK         0.0000 
     31 C31        -2.5292    1.3747    3.4427 C.3       1 UNK         0.0000 
     32 C32        -2.1513    2.8499    3.7758 C.3       1 UNK         0.0000 
     33 C33        -1.6165    3.7305    2.6078 C.3       1 UNK         0.0000 
     34 C34        -0.0771    3.9007    2.6033 C.3       1 UNK         0.0000 
     35 N35         0.4725    4.3693    1.3266 N.am      1 UNK         0.0000 
     36 C36         1.7836    4.3748    1.0406 C.2       1 UNK         0.0000 
     37 O37         2.6384    4.0328    1.8502 O.2       1 UNK         0.0000 
     38 C38         2.1986    4.7498   -0.3918 C.3       1 UNK         0.0000 
     39 C39         2.3995    3.5463   -1.3693 C.3       1 UNK         0.0000 
     40 C40         1.2966    2.4703   -1.2959 C.2       1 UNK         0.0000 
     41 O41         1.5194    1.4073   -0.7001 O.co2     1 UNK         0.0000 
     42 H42        -1.3047    4.0893   -2.6107 H         1 UNK         0.0000 
     43 H43         0.3031    4.7129   -2.5352 H         1 UNK         0.0000 
     44 H44         1.0347    3.3937   -4.4320 H         1 UNK         0.0000 
     45 H45        -0.4614    4.1701   -4.8406 H         1 UNK         0.0000 
     46 H46        -0.9311    2.0870   -5.7122 H         1 UNK         0.0000 
     47 H47        -1.5716    1.8356   -4.1210 H         1 UNK         0.0000 
     48 H48         0.8500    0.8834   -3.5678 H         1 UNK         0.0000 
     49 H49         1.1118    0.8719   -5.2744 H         1 UNK         0.0000 
     50 H50        -1.3620   -0.4722   -4.4528 H         1 UNK         0.0000 
     51 H51        -1.1933   -3.1492   -5.1032 H         1 UNK         0.0000 
     52 H52         0.1043   -3.7576   -4.1685 H         1 UNK         0.0000 
     53 H53        -2.4399   -2.5887   -3.1695 H         1 UNK         0.0000 
     54 H54        -1.7175   -4.0157   -2.6267 H         1 UNK         0.0000 
     55 H55         1.3663   -4.1141   -0.6098 H         1 UNK         0.0000 
     56 H56        -0.1005   -4.6821   -1.3219 H         1 UNK         0.0000 
     57 H57        -0.3758   -3.4785    1.4473 H         1 UNK         0.0000 
     58 H58        -1.2618   -4.7710    0.7380 H         1 UNK         0.0000 
     59 H59         1.6148   -4.8397    1.8028 H         1 UNK         0.0000 
     60 H60         0.8985   -6.1877    0.9665 H         1 UNK         0.0000 
     61 H61        -0.6894   -6.6100    2.7057 H         1 UNK         0.0000 
     62 H62         0.8526   -6.4172    3.4733 H         1 UNK         0.0000 
     63 H63        -1.5286   -4.5451    3.4884 H         1 UNK         0.0000 
     64 H64        -0.7479   -5.2865    4.8742 H         1 UNK         0.0000 
     65 H65         1.2601   -3.7236    4.0211 H         1 UNK         0.0000 
     66 H66         1.1317   -1.2827    5.5198 H         1 UNK         0.0000 
     67 H67         1.6260   -1.3887    3.8836 H         1 UNK         0.0000 
     68 H68         0.8950    0.9127    4.4592 H         1 UNK         0.0000 
     69 H69        -0.6165    0.3959    5.0515 H         1 UNK         0.0000 
     70 H70        -2.6463    0.7800    4.3547 H         1 UNK         0.0000 
     71 H71        -3.5407    1.3849    3.0227 H         1 UNK         0.0000 
     72 H72        -3.0350    3.3252    4.2019 H         1 UNK         0.0000 
     73 H73        -1.4177    2.8396    4.5832 H         1 UNK         0.0000 
     74 H74        -1.9720    3.3519    1.6437 H         1 UNK         0.0000 
     75 H75        -2.0524    4.7275    2.6931 H         1 UNK         0.0000 
     76 H76         0.2360    4.5445    3.4298 H         1 UNK         0.0000 
     77 H77         0.3906    2.9421    2.8204 H         1 UNK         0.0000 
     78 H78        -0.1831    4.6365    0.6081 H         1 UNK         0.0000 
     79 H79         1.4944    5.4680   -0.8098 H         1 UNK         0.0000 
     80 H80         3.1281    5.3184   -0.3412 H         1 UNK         0.0000 
     81 H81         3.3608    3.0788   -1.1412 H         1 UNK         0.0000 
     82 H82         2.5450    3.8811   -2.3979 H         1 UNK         0.0000 
@<TRIPOS>BOND
     1    1    2 nc   
     2    1   14 nc   
     3    1   16 nc   
     4    1   28 nc   
     5    1   30 nc   
     6    1   41 nc   
     7    2    3 1    
     8    3   40 am   BACKBONE|DICT|INTERRES
     9    3    4 1    
    10    4   42 1    
    11    4   43 1    
    12    4    5 1    
    13    5    6 1    
    14    5   44 1    
    15    5   45 1    
    16    6    7 1    
    17    6   47 1    
    18    6   46 1    
    19    7   48 1    
    20    7    8 1    
    21    7   49 1    
    22    8    9 am   BACKBONE|DICT|INTERRES
    23    8   50 1    
    24    9   10 2    
    25    9   11 1    
    26   11   52 1    
    27   11   12 1    
    28   11   51 1    
    29   12   54 1    
    30   12   13 1    
    31   12   53 1    
    32   13   14 2    
    33   13   15 am   BACKBONE|DICT|INTERRES
    34   15   17 1    
    35   15   16 1    
    36   17   18 1    
    37   17   55 1    
    38   17   56 1    
    39   18   57 1    
    40   18   19 1    
    41   18   58 1    
    42   19   59 1    
    43   19   20 1    
    44   19   60 1    
    45   20   62 1    
    46   20   21 1    
    47   20   61 1    
    48   21   22 1    
    49   21   64 1    
    50   21   63 1    
    51   22   65 1    
    52   22   23 am   BACKBONE|DICT|INTERRES
    53   23   25 1    
    54   23   24 2    
    55   25   66 1    
    56   25   26 1    
    57   25   67 1    
    58   26   68 1    
    59   26   69 1    
    60   26   27 1    
    61   27   28 2    
    62   27   29 am   BACKBONE|DICT|INTERRES
    63   29   31 1    
    64   29   30 1    
    65   31   32 1    
    66   31   70 1    
    67   31   71 1    
    68   32   72 1    
    69   32   73 1    
    70   32   33 1    
    71   33   75 1    
    72   33   34 1    
    73   33   74 1    
    74   34   76 1    
    75   34   35 1    
    76   34   77 1    
    77   35   36 am   BACKBONE|DICT|INTERRES
    78   35   78 1    
    79   36   37 2    
    80   36   38 1    
    81   38   80 1    
    82   38   39 1    
    83   38   79 1    
    84   39   40 1    
    85   39   81 1    
    86   39   82 1    
    87   40   41 2    
@<TRIPOS>SUBSTRUCTURE
     1 UNK         1 GROUP             0       ****    0 ROOT    
