@<TRIPOS>MOLECULE
074_c1
111   116    1
SMALL
USER_CHARGES


@<TRIPOS>ATOM
      1 Fe1         0.0011   -0.1717   -0.1706 Fe        1 UNK         0.0000 
      2 N2          7.4187    7.0987   -4.8944 N.pl3     1 UNK         0.0000 
      3 C3          6.8361    6.2242   -5.7137 C.cat     1 UNK         0.0000 
      4 N4          7.3435    5.9987   -6.9284 N.pl3     1 UNK         0.0000 
      5 H5          6.9218    5.2929   -7.5178 H         1 UNK         0.0000 
      6 H6          8.1591    6.4686   -7.2970 H         1 UNK         0.0000 
      7 N7          5.7366    5.5820   -5.3160 N.pl3     1 UNK         0.0000 
      8 C8          4.9571    4.6449   -6.1332 C.3       1 UNK         0.0000 
      9 C9          3.7063    4.1931   -5.3914 C.3       1 UNK         0.0000 
     10 C10         4.0057    3.4326   -4.0856 C.3       1 UNK         0.0000 
     11 C11         2.8181    2.5142   -3.6818 C.3       1 UNK         0.0000 
     12 H12         2.5247    1.9358   -4.5619 H         1 UNK         0.0000 
     13 C13         1.5360    3.3520   -3.3910 C.2       1 UNK         0.0000 
     14 O14         0.8465    3.6677   -4.3655 O.2       1 UNK         0.0000 
     15 N15         1.2999    3.7778   -2.1353 N.am      1 UNK         0.0000 
     16 C16         0.1281    4.5123   -1.5424 C.3       1 UNK         0.0000 
     17 H17         0.5822    5.0877   -0.7338 H         1 UNK         0.0000 
     18 C18        -0.7858    3.5031   -0.7580 C.3       1 UNK         0.0000 
     19 H19        -1.4894    4.0783   -0.1508 H         1 UNK         0.0000 
     20 O20        -0.0122    2.6468    0.0314 O.co2     1 UNK         0.0000 
     21 C21        -1.6777    2.6979   -1.7151 C.3       1 UNK         0.0000 
     22 C22        -0.5080    5.5806   -2.4883 C.2       1 UNK         0.0000 
     23 O23         0.1646    6.2854   -3.2495 O.2       1 UNK         0.0000 
     24 O24        -1.8593    5.7318   -2.3781 O.3       1 UNK         0.0000 
     25 C25        -2.6210    6.1857   -3.4694 C.3       1 UNK         0.0000 
     26 N26         3.2134    1.4340   -2.7660 N.am      1 UNK         0.0000 
     27 C27         4.0229    0.4053   -3.0803 C.2       1 UNK         0.0000 
     28 O28         4.8901    0.4912   -3.9603 O.2       1 UNK         0.0000 
     29 C29         3.6184   -0.9471   -2.4876 C.ar      1 UNK         0.0000 
     30 C30         2.7788   -1.0718   -1.3411 C.ar      1 UNK         0.0000 
     31 O31         2.6143   -0.0425   -0.5753 O.co2     1 UNK         0.0000 
     32 C32         2.1334   -2.3245   -1.0982 C.ar      1 UNK         0.0000 
     33 O33         1.2290   -2.5547   -0.2252 O.co2     1 UNK         0.0000 
     34 C34         2.4506   -3.4313   -1.8966 C.ar      1 UNK         0.0000 
     35 C35         3.3801   -3.3341   -2.9255 C.ar      1 UNK         0.0000 
     36 C36         3.9479   -2.1037   -3.2235 C.ar      1 UNK         0.0000 
     37 H37         7.0490    7.2656   -3.9659 H         1 UNK         0.0000 
     38 H38         8.2381    7.6270   -5.1629 H         1 UNK         0.0000 
     39 H39         5.3464    5.7126   -4.3898 H         1 UNK         0.0000 
     40 H40         4.6529    5.1738   -7.0399 H         1 UNK         0.0000 
     41 H41         5.5506    3.7848   -6.4465 H         1 UNK         0.0000 
     42 H42         2.9888    5.0059   -5.2410 H         1 UNK         0.0000 
     43 H43         3.2050    3.4936   -6.0590 H         1 UNK         0.0000 
     44 H44         4.9100    2.8537   -4.2502 H         1 UNK         0.0000 
     45 H45         4.2492    4.1045   -3.2597 H         1 UNK         0.0000 
     46 H46         1.7292    3.2533   -1.3894 H         1 UNK         0.0000 
     47 H47        -2.4466    3.2805   -2.2010 H         1 UNK         0.0000 
     48 H48        -1.0773    2.2684   -2.5150 H         1 UNK         0.0000 
     49 H49        -2.2038    1.8789   -1.2180 H         1 UNK         0.0000 
     50 H50        -2.6765    5.4040   -4.2321 H         1 UNK         0.0000 
     51 H51        -3.6371    6.3925   -3.1292 H         1 UNK         0.0000 
     52 H52        -2.2063    7.0895   -3.9203 H         1 UNK         0.0000 
     53 H53         2.6650    1.1837   -1.9372 H         1 UNK         0.0000 
     54 H54         1.9456   -4.3743   -1.7234 H         1 UNK         0.0000 
     55 H55         3.6172   -4.2053   -3.5132 H         1 UNK         0.0000 
     56 H56         4.6216   -2.0102   -4.0654 H         1 UNK         0.0000 
     57 N57        -7.4048   -4.9184    7.1094 N.pl3     1 UNK         0.0000 
     58 C58        -6.8222   -5.7330    6.2306 C.cat     1 UNK         0.0000 
     59 N59        -7.3286   -6.9472    5.9980 N.pl3     1 UNK         0.0000 
     60 H60        -6.9052   -7.5282    5.2866 H         1 UNK         0.0000 
     61 H61        -8.1435   -7.3241    6.4630 H         1 UNK         0.0000 
     62 N62        -5.7230   -5.3307    5.5903 N.pl3     1 UNK         0.0000 
     63 C63        -4.9442   -6.1398    4.6454 C.3       1 UNK         0.0000 
     64 C64        -3.6958   -5.3930    4.1947 C.3       1 UNK         0.0000 
     65 C65        -4.0007   -4.0881    3.4356 C.3       1 UNK         0.0000 
     66 C66        -2.8143   -3.6779    2.5181 C.3       1 UNK         0.0000 
     67 H67        -2.5195   -4.5563    1.9371 H         1 UNK         0.0000 
     68 C68        -1.5332   -3.3861    3.3568 C.2       1 UNK         0.0000 
     69 O69        -0.8431   -4.3600    3.6738 O.2       1 UNK         0.0000 
     70 N70        -1.2978   -2.1301    3.7819 N.am      1 UNK         0.0000 
     71 C71        -0.1258   -1.5352    4.5156 C.3       1 UNK         0.0000 
     72 H72        -0.5795   -0.7257    5.0885 H         1 UNK         0.0000 
     73 C73         0.7892   -0.7555    3.5044 C.3       1 UNK         0.0000 
     74 H74         1.4941   -0.1493    4.0782 H         1 UNK         0.0000 
     75 O75         0.0164    0.0335    2.6472 O.co2     1 UNK         0.0000 
     76 C76         1.6775   -1.7173    2.6999 C.3       1 UNK         0.0000 
     77 C77         0.5111   -2.4797    5.5851 C.2       1 UNK         0.0000 
     78 O78        -0.1619   -3.2397    6.2907 O.2       1 UNK         0.0000 
     79 O79         1.8622   -2.3709    5.7368 O.3       1 UNK         0.0000 
     80 C80         2.6204   -3.4628    6.1937 C.3       1 UNK         0.0000 
     81 N81        -3.2133   -2.7610    1.4401 N.am      1 UNK         0.0000 
     82 C82        -4.0210   -3.0781    0.4109 C.2       1 UNK         0.0000 
     83 O83        -4.8879   -3.9586    0.4971 O.2       1 UNK         0.0000 
     84 C84        -3.6143   -2.4888   -0.9424 C.ar      1 UNK         0.0000 
     85 C85        -2.7756   -1.3419   -1.0680 C.ar      1 UNK         0.0000 
     86 O86        -2.6123   -0.5742   -0.0404 O.co2     1 UNK         0.0000 
     87 C87        -2.1296   -1.1007   -2.3210 C.ar      1 UNK         0.0000 
     88 O88        -1.2270   -0.2264   -2.5529 O.co2     1 UNK         0.0000 
     89 C89        -2.4450   -1.9014   -3.4263 C.ar      1 UNK         0.0000 
     90 C90        -3.3729   -2.9314   -3.3283 C.ar      1 UNK         0.0000 
     91 C91        -3.9418   -3.2277   -2.0975 C.ar      1 UNK         0.0000 
     92 H92        -7.0359   -3.9903    7.2811 H         1 UNK         0.0000 
     93 H93        -8.2244   -5.1908    7.6354 H         1 UNK         0.0000 
     94 H94        -5.3322   -4.4058    5.7271 H         1 UNK         0.0000 
     95 H95        -4.6395   -7.0541    5.1608 H         1 UNK         0.0000 
     96 H96        -5.5421   -6.4392    3.7836 H         1 UNK         0.0000 
     97 H97        -2.9829   -5.2344    5.0101 H         1 UNK         0.0000 
     98 H98        -3.1860   -6.0587    3.4994 H         1 UNK         0.0000 
     99 H99        -4.9040   -4.2565    2.8563 H         1 UNK         0.0000 
    100 H100       -4.2481   -3.2641    4.1081 H         1 UNK         0.0000 
    101 H101       -1.7280   -1.3852    3.2572 H         1 UNK         0.0000 
    102 H102        2.4443   -2.2071    3.2829 H         1 UNK         0.0000 
    103 H103        1.0747   -2.5150    2.2703 H         1 UNK         0.0000 
    104 H104        2.2057   -1.2217    1.8819 H         1 UNK         0.0000 
    105 H105        2.6724   -4.2290    5.4152 H         1 UNK         0.0000 
    106 H106        3.6377   -3.1243    6.3983 H         1 UNK         0.0000 
    107 H107        2.2060   -3.9104    7.0998 H         1 UNK         0.0000 
    108 H108       -2.6652   -1.9325    1.1882 H         1 UNK         0.0000 
    109 H109       -1.9392   -1.7275   -4.3691 H         1 UNK         0.0000 
    110 H110       -3.6094   -3.5210   -4.1983 H         1 UNK         0.0000 
    111 H111       -4.6153   -4.0698   -2.0035 H         1 UNK         0.0000 
@<TRIPOS>BOND
     1    1   20 nc   
     2    1   31 nc   
     3    1   33 nc   
     4    1   75 nc   
     5    1   86 nc   
     6    1   88 nc   
     7    2   37 1    
     8    2    3 ar   
     9    2   38 1    
    10    3    7 ar   
    11    3    4 ar   
    12    4    5 1    
    13    4    6 1    
    14    7   39 1    
    15    7    8 1    
    16    8    9 1    
    17    8   40 1    
    18    8   41 1    
    19    9   42 1    
    20    9   10 1    
    21    9   43 1    
    22   10   11 1    
    23   10   45 1    
    24   10   44 1    
    25   11   12 1    
    26   11   13 1    
    27   11   26 1    
    28   13   15 am   BACKBONE|DICT|INTERRES
    29   13   14 2    
    30   15   16 1    
    31   15   46 1    
    32   16   18 1    
    33   16   17 1    
    34   16   22 1    
    35   18   19 1    
    36   18   20 1    
    37   18   21 1    
    38   21   49 1    
    39   21   47 1    
    40   21   48 1    
    41   22   23 2    
    42   22   24 1    
    43   24   25 1    
    44   25   51 1    
    45   25   50 1    
    46   25   52 1    
    47   26   53 1    
    48   26   27 am   BACKBONE|DICT|INTERRES
    49   27   29 1    
    50   27   28 2    
    51   29   30 ar   
    52   29   36 ar   
    53   30   32 ar   
    54   30   31 1    
    55   32   33 1    
    56   32   34 ar   
    57   34   54 1    
    58   34   35 ar   
    59   35   36 ar   
    60   35   55 1    
    61   36   56 1    
    62   57   92 1    
    63   57   93 1    
    64   57   58 ar   
    65   58   59 ar   
    66   58   62 ar   
    67   59   61 1    
    68   59   60 1    
    69   62   94 1    
    70   62   63 1    
    71   63   95 1    
    72   63   64 1    
    73   63   96 1    
    74   64   97 1    
    75   64   65 1    
    76   64   98 1    
    77   65  100 1    
    78   65   66 1    
    79   65   99 1    
    80   66   67 1    
    81   66   68 1    
    82   66   81 1    
    83   68   69 2    
    84   68   70 am   BACKBONE|DICT|INTERRES
    85   70   71 1    
    86   70  101 1    
    87   71   72 1    
    88   71   77 1    
    89   71   73 1    
    90   73   74 1    
    91   73   75 1    
    92   73   76 1    
    93   76  102 1    
    94   76  103 1    
    95   76  104 1    
    96   77   78 2    
    97   77   79 1    
    98   79   80 1    
    99   80  106 1    
   100   80  107 1    
   101   80  105 1    
   102   81   82 am   BACKBONE|DICT|INTERRES
   103   81  108 1    
   104   82   83 2    
   105   82   84 1    
   106   84   85 ar   
   107   84   91 ar   
   108   85   86 1    
   109   85   87 ar   
   110   87   88 1    
   111   87   89 ar   
   112   89   90 ar   
   113   89  109 1    
   114   90   91 ar   
   115   90  110 1    
   116   91  111 1    
@<TRIPOS>SUBSTRUCTURE
     1 UNK         1 GROUP             0       ****    0 ROOT    
