@<TRIPOS>MOLECULE
119_c2
98   104    1
SMALL
USER_CHARGES


@<TRIPOS>ATOM
      1 Fe1         1.1380   -0.5814   -2.0428 Fe        1 UNK         0.0000 
      2 C2          0.8676    4.3505   -4.2370 C.ar      1 UNK         0.0000 
      3 C3         -0.2540    3.8008   -4.8493 C.ar      1 UNK         0.0000 
      4 C4         -0.6218    2.4918   -4.5601 C.ar      1 UNK         0.0000 
      5 C5          0.1758    1.6935   -3.7379 C.ar      1 UNK         0.0000 
      6 O6         -0.2742    0.5363   -3.4761 O.co2     1 UNK         0.0000 
      7 C7          1.3832    2.2015   -3.1992 C.ar      1 UNK         0.0000 
      8 O8          2.2088    1.4543   -2.5470 O.co2     1 UNK         0.0000 
      9 C9          1.6594    3.5845   -3.3627 C.ar      1 UNK         0.0000 
     10 C10         2.5011    4.3186   -2.3442 C.2       1 UNK         0.0000 
     11 O11         3.7357    4.3652   -2.2851 O.2       1 UNK         0.0000 
     12 N12         1.6830    4.9385   -1.4863 N.am      1 UNK         0.0000 
     13 C13         1.9581    5.2261   -0.0831 C.3       1 UNK         0.0000 
     14 H14         3.0354    5.3084    0.0890 H         1 UNK         0.0000 
     15 C15         1.2157    6.5363    0.3196 C.3       1 UNK         0.0000 
     16 C16         1.6705    7.8478   -0.3297 C.3       1 UNK         0.0000 
     17 C17         0.7860    9.0045    0.1734 C.3       1 UNK         0.0000 
     18 N18         1.1512   10.2986   -0.4340 N.pl3     1 UNK         0.0000 
     19 C19         1.3900   11.4677    0.1815 C.cat     1 UNK         0.0000 
     20 N20         1.6452   12.5511   -0.5548 N.pl3     1 UNK         0.0000 
     21 N21         1.3792   11.5693    1.5145 N.pl3     1 UNK         0.0000 
     22 H22         1.5758   12.4304    2.0064 H         1 UNK         0.0000 
     23 H23         1.1884   10.7651    2.0953 H         1 UNK         0.0000 
     24 C24         1.3960    4.0982    0.8374 C.2       1 UNK         0.0000 
     25 O25         1.4929    4.2563    2.0602 O.2       1 UNK         0.0000 
     26 N26         0.7182    3.0821    0.2734 N.am      1 UNK         0.0000 
     27 C27         0.0802    1.9375    0.9599 C.3       1 UNK         0.0000 
     28 H28        -0.2909    2.2357    1.9492 H         1 UNK         0.0000 
     29 C29         1.1771    0.8501    1.1754 C.2       1 UNK         0.0000 
     30 O30         1.5392    0.3180    0.0934 O.co2     1 UNK         0.0000 
     31 O31         1.5474    0.6946    2.3642 O.co2     1 UNK         0.0000 
     32 C32        -1.1182    1.3789    0.1329 C.3       1 UNK         0.0000 
     33 O33        -1.5471    0.1080    0.6701 O.3       1 UNK         0.0000 
     34 C34        -2.0691   -0.9056   -0.2012 C.3       1 UNK         0.0000 
     35 O35        -1.0624   -1.3062   -1.0881 O.co2     1 UNK         0.0000 
     36 C36        -2.5834   -2.0650    0.7068 C.3       1 UNK         0.0000 
     37 H37        -3.1488   -2.6813    0.0119 H         1 UNK         0.0000 
     38 C38        -3.5856   -1.6620    1.8331 C.3       1 UNK         0.0000 
     39 O39        -2.9740   -0.9871    2.9160 O.3       1 UNK         0.0000 
     40 N40        -1.4609   -2.8825    1.2080 N.am      1 UNK         0.0000 
     41 C41        -1.5628   -4.1870    1.4724 C.2       1 UNK         0.0000 
     42 O42        -2.6532   -4.7860    1.4212 O.2       1 UNK         0.0000 
     43 C43        -0.2673   -5.0056    1.7556 C.3       1 UNK         0.0000 
     44 H44         0.3417   -4.4434    2.4698 H         1 UNK         0.0000 
     45 C45        -0.6641   -6.4155    2.3073 C.3       1 UNK         0.0000 
     46 C46         0.3795   -7.3856    2.8822 C.3       1 UNK         0.0000 
     47 C47        -0.3904   -8.6543    3.3203 C.3       1 UNK         0.0000 
     48 N48         0.4506   -9.7730    3.7856 N.pl3     1 UNK         0.0000 
     49 C49        -0.0096  -10.9925    4.1165 C.cat     1 UNK         0.0000 
     50 N50        -1.3180  -11.2636    4.0471 N.pl3     1 UNK         0.0000 
     51 N51         0.8380  -11.9460    4.5100 N.pl3     1 UNK         0.0000 
     52 H52         0.5300  -12.8772    4.7601 H         1 UNK         0.0000 
     53 H53         1.8337  -11.7805    4.5769 H         1 UNK         0.0000 
     54 N54         0.4110   -5.0977    0.4666 N.am      1 UNK         0.0000 
     55 C55         1.6727   -4.7735    0.1834 C.2       1 UNK         0.0000 
     56 O56         2.5768   -4.7507    1.0339 O.2       1 UNK         0.0000 
     57 C57         1.8408   -4.5066   -1.3014 C.ar      1 UNK         0.0000 
     58 C58         1.9060   -3.1874   -1.8141 C.ar      1 UNK         0.0000 
     59 O59         2.0594   -2.1795   -1.0547 O.co2     1 UNK         0.0000 
     60 C60         1.6884   -2.9439   -3.1827 C.ar      1 UNK         0.0000 
     61 O61         1.6036   -1.7520   -3.6229 O.co2     1 UNK         0.0000 
     62 C62         1.4672   -4.0136   -4.0487 C.ar      1 UNK         0.0000 
     63 C63         1.5016   -5.3278   -3.5737 C.ar      1 UNK         0.0000 
     64 C64         1.6874   -5.5749   -2.2080 C.ar      1 UNK         0.0000 
     65 H65         1.0829    5.4022   -4.3575 H         1 UNK         0.0000 
     66 H66        -0.8872    4.3915   -5.4886 H         1 UNK         0.0000 
     67 H67        -1.5385    2.0668   -4.9582 H         1 UNK         0.0000 
     68 H68         0.7310    4.6803   -1.6807 H         1 UNK         0.0000 
     69 H69         1.2995    6.6703    1.4019 H         1 UNK         0.0000 
     70 H70         0.1492    6.3986    0.1254 H         1 UNK         0.0000 
     71 H71         1.5966    7.7509   -1.4136 H         1 UNK         0.0000 
     72 H72         2.7198    8.0317   -0.0936 H         1 UNK         0.0000 
     73 H73        -0.2630    8.8046   -0.0550 H         1 UNK         0.0000 
     74 H74         0.8443    9.0441    1.2608 H         1 UNK         0.0000 
     75 H75         1.1572   10.2421   -1.4462 H         1 UNK         0.0000 
     76 H76         1.6514   12.5192   -1.5659 H         1 UNK         0.0000 
     77 H77         1.8399   13.4557   -0.1445 H         1 UNK         0.0000 
     78 H78         0.8670    2.9042   -0.7163 H         1 UNK         0.0000 
     79 H79        -0.8262    1.3585   -0.9169 H         1 UNK         0.0000 
     80 H80        -1.9456    2.0765    0.1675 H         1 UNK         0.0000 
     81 H81        -4.0336   -2.5730    2.2298 H         1 UNK         0.0000 
     82 H82        -4.4094   -1.0645    1.4458 H         1 UNK         0.0000 
     83 H83        -2.1999   -0.5493    2.5074 H         1 UNK         0.0000 
     84 H84        -0.5498   -2.4520    1.0550 H         1 UNK         0.0000 
     85 H85        -1.3881   -6.2566    3.1117 H         1 UNK         0.0000 
     86 H86        -1.2132   -6.9353    1.5187 H         1 UNK         0.0000 
     87 H87         1.1711   -7.6066    2.1641 H         1 UNK         0.0000 
     88 H88         0.8461   -6.9083    3.7467 H         1 UNK         0.0000 
     89 H89        -1.0477   -8.9849    2.5143 H         1 UNK         0.0000 
     90 H90        -1.0397   -8.3928    4.1591 H         1 UNK         0.0000 
     91 H91         1.4358   -9.5341    3.8169 H         1 UNK         0.0000 
     92 H92        -1.9777  -10.5512    3.7635 H         1 UNK         0.0000 
     93 H93        -1.7119  -12.1691    4.2650 H         1 UNK         0.0000 
     94 H94        -0.1875   -4.9269   -0.3272 H         1 UNK         0.0000 
     95 H95         1.2504   -3.8064   -5.0920 H         1 UNK         0.0000 
     96 H96         1.3607   -6.1482   -4.2684 H         1 UNK         0.0000 
     97 H97         1.6680   -6.5906   -1.8268 H         1 UNK         0.0000 
     98 H98        -2.9470   -0.4755   -0.6993 H         1 UNK         0.0000 
@<TRIPOS>BOND
     1    1    6 nc   
     2    1    8 nc   
     3    1   30 nc   
     4    1   35 nc   
     5    1   59 nc   
     6    1   61 nc   
     7    2    9 ar   
     8    2    3 ar   
     9    2   65 1    
    10    3    4 ar   
    11    3   66 1    
    12    4    5 ar   
    13    4   67 1    
    14    5    6 1    
    15    5    7 ar   
    16    7    9 ar   
    17    7    8 1    
    18    9   10 1    
    19   10   11 2    
    20   10   12 am   BACKBONE|DICT|INTERRES
    21   12   13 1    
    22   12   68 1    
    23   13   14 1    
    24   13   15 1    
    25   13   24 1    
    26   15   69 1    
    27   15   16 1    
    28   15   70 1    
    29   16   72 1    
    30   16   17 1    
    31   16   71 1    
    32   17   74 1    
    33   17   18 1    
    34   17   73 1    
    35   18   19 ar   
    36   18   75 1    
    37   19   21 ar   
    38   19   20 ar   
    39   20   77 1    
    40   20   76 1    
    41   21   22 1    
    42   21   23 1    
    43   24   25 2    
    44   24   26 am   BACKBONE|DICT|INTERRES
    45   26   27 1    
    46   26   78 1    
    47   27   29 1    
    48   27   28 1    
    49   27   32 1    
    50   29   31 2    
    51   29   30 1    
    52   32   33 1    
    53   32   79 1    
    54   32   80 1    
    55   33   34 1    
    56   34   36 1    
    57   34   35 1    
    58   34   98 1    
    59   36   37 1    
    60   36   40 1    
    61   36   38 1    
    62   38   81 1    
    63   38   39 1    
    64   38   82 1    
    65   39   83 1    
    66   40   84 1    
    67   40   41 am   BACKBONE|DICT|INTERRES
    68   41   43 1    
    69   41   42 2    
    70   43   45 1    
    71   43   44 1    
    72   43   54 1    
    73   45   46 1    
    74   45   85 1    
    75   45   86 1    
    76   46   47 1    
    77   46   88 1    
    78   46   87 1    
    79   47   48 1    
    80   47   90 1    
    81   47   89 1    
    82   48   91 1    
    83   48   49 ar   
    84   49   51 ar   
    85   49   50 ar   
    86   50   93 1    
    87   50   92 1    
    88   51   53 1    
    89   51   52 1    
    90   54   55 am   BACKBONE|DICT|INTERRES
    91   54   94 1    
    92   55   56 2    
    93   55   57 1    
    94   57   58 ar   
    95   57   64 ar   
    96   58   59 1    
    97   58   60 ar   
    98   60   61 1    
    99   60   62 ar   
   100   62   63 ar   
   101   62   95 1    
   102   63   64 ar   
   103   63   96 1    
   104   64   97 1    
@<TRIPOS>SUBSTRUCTURE
     1 UNK         1 GROUP             0       ****    0 ROOT    
