@<TRIPOS>MOLECULE
258_A_c1
91   98    1
SMALL
USER_CHARGES


@<TRIPOS>ATOM
      1 Fe1        -1.4905   -1.5703   -3.0470 Fe        1 UNK         0.0000 
      2 C2          2.7278   -0.1134   -6.2785 C.ar      1 UNK         0.0000 
      3 C3          2.0900   -0.9211   -7.2035 C.ar      1 UNK         0.0000 
      4 C4          0.9158   -1.5688   -6.8420 C.ar      1 UNK         0.0000 
      5 C5          0.3619   -1.4073   -5.5652 C.ar      1 UNK         0.0000 
      6 O6         -0.7408   -2.0074   -5.3305 O.co2     1 UNK         0.0000 
      7 C7          1.0102   -0.5932   -4.6025 C.ar      1 UNK         0.0000 
      8 O8          0.4631   -0.4664   -3.4422 O.co2     1 UNK         0.0000 
      9 C9          2.2190    0.0715   -4.9691 C.ar      1 UNK         0.0000 
     10 C10         3.0189    1.0117   -4.0652 C.2       1 UNK         0.0000 
     11 O11         3.7837    1.8474   -4.5762 O.2       1 UNK         0.0000 
     12 N12         2.9962    0.8500   -2.7223 N.am      1 UNK         0.0000 
     13 C13         3.8968    1.6403   -1.8649 C.3       1 UNK         0.0000 
     14 C14         4.0630    1.2684   -0.3708 C.3       1 UNK         0.0000 
     15 C15         3.7391    2.4186    0.6249 C.3       1 UNK         0.0000 
     16 N16         2.3452    2.5450    1.1075 N.am      1 UNK         0.0000 
     17 C17         1.5398    3.5482    0.6498 C.2       1 UNK         0.0000 
     18 O18         1.9741    4.4488   -0.0793 O.2       1 UNK         0.0000 
     19 C19         0.0318    3.6369    1.0833 C.3       1 UNK         0.0000 
     20 H20        -0.2078    2.8126    1.7474 H         1 UNK         0.0000 
     21 C21        -0.1609    4.9453    1.9195 C.3       1 UNK         0.0000 
     22 H22         0.5920    4.9656    2.7133 H         1 UNK         0.0000 
     23 O23        -1.4042    4.9265    2.6060 O.3       1 UNK         0.0000 
     24 C24        -0.0808    6.2898    1.1686 C.3       1 UNK         0.0000 
     25 N25        -0.9304    3.4647   -0.0209 N.am      1 UNK         0.0000 
     26 C26        -0.9174    2.3560   -0.7878 C.2       1 UNK         0.0000 
     27 O27        -0.0229    1.5148   -0.6454 O.2       1 UNK         0.0000 
     28 C28        -2.0157    2.1737   -1.8277 C.ar      1 UNK         0.0000 
     29 C29        -2.5341    0.8886   -2.1126 C.ar      1 UNK         0.0000 
     30 O30        -2.2991   -0.0903   -1.3282 O.co2     1 UNK         0.0000 
     31 C31        -3.2356    0.6651   -3.3102 C.ar      1 UNK         0.0000 
     32 O32        -3.4464   -0.5145   -3.7497 O.co2     1 UNK         0.0000 
     33 C33        -3.6031    1.7424   -4.1061 C.ar      1 UNK         0.0000 
     34 C34        -3.2513    3.0426   -3.7396 C.ar      1 UNK         0.0000 
     35 C35        -2.4387    3.2566   -2.6231 C.ar      1 UNK         0.0000 
     36 C36         1.9841    1.5811    2.1682 C.3       1 UNK         0.0000 
     37 C37         1.4639    0.1838    1.7407 C.3       1 UNK         0.0000 
     38 C38         1.6968   -0.8644    2.8412 C.3       1 UNK         0.0000 
     39 N39         1.5004   -2.2383    2.3804 N.am      1 UNK         0.0000 
     40 C40         2.2517   -3.2798    2.7783 C.2       1 UNK         0.0000 
     41 O41         3.2278   -3.1491    3.5228 O.2       1 UNK         0.0000 
     42 C42         1.8362   -4.7268    2.3767 C.3       1 UNK         0.0000 
     43 H43         2.7654   -5.2462    2.1389 H         1 UNK         0.0000 
     44 C44         1.2126   -5.3430    3.6678 C.3       1 UNK         0.0000 
     45 H45         1.8230   -5.1076    4.5486 H         1 UNK         0.0000 
     46 O46         1.2106   -6.7576    3.5724 O.3       1 UNK         0.0000 
     47 C47        -0.2315   -4.8948    3.9648 C.3       1 UNK         0.0000 
     48 N48         0.9554   -4.9066    1.2197 N.am      1 UNK         0.0000 
     49 C49         1.1916   -4.4572   -0.0149 C.2       1 UNK         0.0000 
     50 O50         2.2435   -3.8653   -0.3046 O.2       1 UNK         0.0000 
     51 C51         0.1213   -4.8379   -1.0203 C.ar      1 UNK         0.0000 
     52 C52        -0.7009   -3.8675   -1.6390 C.ar      1 UNK         0.0000 
     53 O53        -0.5925   -2.6292   -1.3700 O.co2     1 UNK         0.0000 
     54 C54        -1.6576   -4.2683   -2.5911 C.ar      1 UNK         0.0000 
     55 O55        -2.3674   -3.4098   -3.2001 O.co2     1 UNK         0.0000 
     56 C56        -1.8043   -5.6154   -2.9154 C.ar      1 UNK         0.0000 
     57 C57        -1.0388   -6.5867   -2.2656 C.ar      1 UNK         0.0000 
     58 C58        -0.0912   -6.2009   -1.3146 C.ar      1 UNK         0.0000 
     59 H59         3.6306    0.3871   -6.5918 H         1 UNK         0.0000 
     60 H60         2.4842   -1.0452   -8.1974 H         1 UNK         0.0000 
     61 H61         0.4076   -2.2003   -7.5583 H         1 UNK         0.0000 
     62 H62         2.1697    0.3545   -2.3889 H         1 UNK         0.0000 
     63 H63         3.7156    2.7092   -1.9955 H         1 UNK         0.0000 
     64 H64         4.8885    1.4657   -2.2948 H         1 UNK         0.0000 
     65 H65         3.6033    0.3171   -0.1351 H         1 UNK         0.0000 
     66 H66         5.1244    1.0590   -0.2233 H         1 UNK         0.0000 
     67 H67         4.0674    3.3502    0.1591 H         1 UNK         0.0000 
     68 H68         4.3804    2.3217    1.4991 H         1 UNK         0.0000 
     69 H69        -1.4961    5.7334    3.1180 H         1 UNK         0.0000 
     70 H70        -0.7233    6.3003    0.2887 H         1 UNK         0.0000 
     71 H71         0.9353    6.4940    0.8339 H         1 UNK         0.0000 
     72 H72        -0.3623    7.1265    1.8053 H         1 UNK         0.0000 
     73 H73        -1.7034    4.0945   -0.0945 H         1 UNK         0.0000 
     74 H74        -4.1414    1.5517   -5.0255 H         1 UNK         0.0000 
     75 H75        -3.5714    3.8615   -4.3559 H         1 UNK         0.0000 
     76 H76        -2.1109    4.2574   -2.4016 H         1 UNK         0.0000 
     77 H77         1.2966    2.0172    2.8912 H         1 UNK         0.0000 
     78 H78         2.8949    1.4290    2.7459 H         1 UNK         0.0000 
     79 H79         0.3981    0.2332    1.5143 H         1 UNK         0.0000 
     80 H80         1.9091   -0.1698    0.8172 H         1 UNK         0.0000 
     81 H81         2.7158   -0.7391    3.2163 H         1 UNK         0.0000 
     82 H82         1.0534   -0.6570    3.6983 H         1 UNK         0.0000 
     83 H83         0.7721   -2.3908    1.6873 H         1 UNK         0.0000 
     84 H84         2.1254   -7.0501    3.5718 H         1 UNK         0.0000 
     85 H85        -0.8948   -5.1167    3.1262 H         1 UNK         0.0000 
     86 H86        -0.2773   -3.8177    4.1374 H         1 UNK         0.0000 
     87 H87        -0.6281   -5.3907    4.8477 H         1 UNK         0.0000 
     88 H88         0.1063   -5.4264    1.3649 H         1 UNK         0.0000 
     89 H89        -2.5247   -5.8887   -3.6744 H         1 UNK         0.0000 
     90 H90        -1.1961   -7.6246   -2.5143 H         1 UNK         0.0000 
     91 H91         0.4854   -6.9666   -0.8125 H         1 UNK         0.0000 
@<TRIPOS>BOND
     1    1    6 nc   
     2    1    8 nc   
     3    1   30 nc   
     4    1   32 nc   
     5    1   53 nc   
     6    1   55 nc   
     7    2    9 ar   
     8    2    3 ar   
     9    2   59 1    
    10    3    4 ar   
    11    3   60 1    
    12    4    5 ar   
    13    4   61 1    
    14    5    6 1    
    15    5    7 ar   
    16    7    8 1    
    17    7    9 ar   
    18    9   10 1    
    19   10   12 am   BACKBONE|DICT|INTERRES
    20   10   11 2    
    21   12   62 1    
    22   12   13 1    
    23   13   14 1    
    24   13   63 1    
    25   13   64 1    
    26   14   66 1    
    27   14   65 1    
    28   14   15 1    
    29   15   16 1    
    30   15   68 1    
    31   15   67 1    
    32   16   36 1    
    33   16   17 am   BACKBONE|DICT|INTERRES
    34   17   19 1    
    35   17   18 2    
    36   19   20 1    
    37   19   21 1    
    38   19   25 1    
    39   21   23 1    
    40   21   22 1    
    41   21   24 1    
    42   23   69 1    
    43   24   72 1    
    44   24   70 1    
    45   24   71 1    
    46   25   26 am   BACKBONE|DICT|INTERRES
    47   25   73 1    
    48   26   27 2    
    49   26   28 1    
    50   28   29 ar   
    51   28   35 ar   
    52   29   30 1    
    53   29   31 ar   
    54   31   32 1    
    55   31   33 ar   
    56   33   34 ar   
    57   33   74 1    
    58   34   35 ar   
    59   34   75 1    
    60   35   76 1    
    61   36   78 1    
    62   36   77 1    
    63   36   37 1    
    64   37   38 1    
    65   37   79 1    
    66   37   80 1    
    67   38   81 1    
    68   38   82 1    
    69   38   39 1    
    70   39   40 am   BACKBONE|DICT|INTERRES
    71   39   83 1    
    72   40   41 2    
    73   40   42 1    
    74   42   43 1    
    75   42   44 1    
    76   42   48 1    
    77   44   47 1    
    78   44   45 1    
    79   44   46 1    
    80   46   84 1    
    81   47   86 1    
    82   47   87 1    
    83   47   85 1    
    84   48   49 am   BACKBONE|DICT|INTERRES
    85   48   88 1    
    86   49   50 2    
    87   49   51 1    
    88   51   52 ar   
    89   51   58 ar   
    90   52   53 1    
    91   52   54 ar   
    92   54   55 1    
    93   54   56 ar   
    94   56   57 ar   
    95   56   89 1    
    96   57   58 ar   
    97   57   90 1    
    98   58   91 1    
@<TRIPOS>SUBSTRUCTURE
     1 UNK         1 GROUP             0       ****    0 ROOT    
