@<TRIPOS>MOLECULE
110_c1
91   96    1
SMALL
USER_CHARGES


@<TRIPOS>ATOM
      1 Fe1         0.2944   -0.2224   -0.0020 Fe        1 UNK         0.0000 
      2 O2          1.1234   -0.0741   -2.0328 O.co2     1 UNK         0.0000 
      3 N3          0.1338   -0.5464   -2.7892 N.am      1 UNK         0.0000 
      4 C4          0.5768   -1.5546   -3.7730 C.3       1 UNK         0.0000 
      5 C5          0.2439   -3.0166   -3.3688 C.3       1 UNK         0.0000 
      6 C6          1.2725   -4.0506   -3.8685 C.3       1 UNK         0.0000 
      7 C7          0.7875   -5.5166   -3.8243 C.3       1 UNK         0.0000 
      8 C8          0.2051   -6.0289   -2.4882 C.3       1 UNK         0.0000 
      9 N9          1.0849   -5.8130   -1.3282 N.am      1 UNK         0.0000 
     10 C10         0.6721   -5.3577   -0.1373 C.2       1 UNK         0.0000 
     11 O11        -0.5000   -5.0747    0.0840 O.2       1 UNK         0.0000 
     12 C12         1.7160   -5.2072    0.9875 C.3       1 UNK         0.0000 
     13 C13         2.1810   -3.7715    1.4018 C.3       1 UNK         0.0000 
     14 C14         1.2254   -2.6139    1.0587 C.2       1 UNK         0.0000 
     15 O15         1.3682   -1.9862    0.0063 O.co2     1 UNK         0.0000 
     16 N16         0.1666   -2.2676    1.8286 N.am      1 UNK         0.0000 
     17 O17        -0.8203   -1.5109    1.3460 O.co2     1 UNK         0.0000 
     18 C18         0.1463   -2.4683    3.3026 C.3       1 UNK         0.0000 
     19 C19        -0.8279   -1.5436    4.0927 C.3       1 UNK         0.0000 
     20 C20        -0.5826   -1.4538    5.6101 C.3       1 UNK         0.0000 
     21 C21        -1.6473   -0.6110    6.3537 C.3       1 UNK         0.0000 
     22 C22        -1.9086    0.8216    5.8190 C.3       1 UNK         0.0000 
     23 N23        -0.6797    1.5979    5.6279 N.am      1 UNK         0.0000 
     24 C24        -0.3469    2.4905    4.6811 C.2       1 UNK         0.0000 
     25 O25         0.7454    3.0339    4.7695 O.2       1 UNK         0.0000 
     26 C26        -1.3022    2.8708    3.5285 C.3       1 UNK         0.0000 
     27 C27        -0.6100    3.3889    2.2246 C.3       1 UNK         0.0000 
     28 C28         0.0120    2.2364    1.4259 C.2       1 UNK         0.0000 
     29 O29        -0.6589    1.2365    1.1695 O.co2     1 UNK         0.0000 
     30 N30         1.3047    2.2104    1.0150 N.am      1 UNK         0.0000 
     31 O31         1.8997    1.0483    0.7419 O.co2     1 UNK         0.0000 
     32 C32         1.9888    3.4066    0.4525 C.3       1 UNK         0.0000 
     33 C33         2.9096    3.1568   -0.7942 C.3       1 UNK         0.0000 
     34 C34         2.8513    4.1880   -1.9462 C.3       1 UNK         0.0000 
     35 C35         1.7717    3.8907   -3.0123 C.3       1 UNK         0.0000 
     36 C36         0.3241    4.0794   -2.5193 C.3       1 UNK         0.0000 
     37 C37        -0.7432    3.9929   -3.6287 C.3       1 UNK         0.0000 
     38 N38        -0.9726    2.6224   -4.0961 N.am      1 UNK         0.0000 
     39 C39        -2.1651    2.0079   -4.1237 C.2       1 UNK         0.0000 
     40 O40        -3.2050    2.5439   -3.7582 O.2       1 UNK         0.0000 
     41 C41        -2.1907    0.5539   -4.6154 C.3       1 UNK         0.0000 
     42 C42        -2.2907   -0.5180   -3.4938 C.3       1 UNK         0.0000 
     43 C43        -1.1702   -0.3910   -2.4530 C.2       1 UNK         0.0000 
     44 O44        -1.4281   -0.0348   -1.3008 O.co2     1 UNK         0.0000 
     45 H45         1.6657   -1.4787   -3.8721 H         1 UNK         0.0000 
     46 H46         0.2111   -1.3378   -4.7787 H         1 UNK         0.0000 
     47 H47         0.1744   -3.1028   -2.2864 H         1 UNK         0.0000 
     48 H48        -0.7452   -3.2657   -3.7533 H         1 UNK         0.0000 
     49 H49         2.1847   -3.9539   -3.2778 H         1 UNK         0.0000 
     50 H50         1.5571   -3.8197   -4.8956 H         1 UNK         0.0000 
     51 H51         0.0266   -5.6544   -4.5957 H         1 UNK         0.0000 
     52 H52         1.6121   -6.1679   -4.1209 H         1 UNK         0.0000 
     53 H53        -0.7591   -5.5353   -2.3332 H         1 UNK         0.0000 
     54 H54        -0.0100   -7.0974   -2.5626 H         1 UNK         0.0000 
     55 H55         2.0459   -6.0979   -1.4234 H         1 UNK         0.0000 
     56 H56         2.5824   -5.8473    0.8211 H         1 UNK         0.0000 
     57 H57         1.2492   -5.6502    1.8674 H         1 UNK         0.0000 
     58 H58         3.0778   -3.5671    0.8110 H         1 UNK         0.0000 
     59 H59         2.5642   -3.7265    2.4202 H         1 UNK         0.0000 
     60 H60        -0.0739   -3.5123    3.5321 H         1 UNK         0.0000 
     61 H61         1.1517   -2.2996    3.7011 H         1 UNK         0.0000 
     62 H62        -0.7684   -0.5344    3.6864 H         1 UNK         0.0000 
     63 H63        -1.8466   -1.8915    3.9126 H         1 UNK         0.0000 
     64 H64         0.4042   -1.0251    5.7905 H         1 UNK         0.0000 
     65 H65        -0.5603   -2.4558    6.0412 H         1 UNK         0.0000 
     66 H66        -1.3770   -0.5522    7.4099 H         1 UNK         0.0000 
     67 H67        -2.5951   -1.1529    6.3386 H         1 UNK         0.0000 
     68 H68        -2.4663    0.7409    4.8858 H         1 UNK         0.0000 
     69 H69        -2.5430    1.3628    6.5257 H         1 UNK         0.0000 
     70 H70         0.0405    1.4792    6.3232 H         1 UNK         0.0000 
     71 H71        -2.0347    2.1078    3.2906 H         1 UNK         0.0000 
     72 H72        -1.8958    3.6888    3.9272 H         1 UNK         0.0000 
     73 H73         0.0638    4.2242    2.4061 H         1 UNK         0.0000 
     74 H74        -1.3810    3.8035    1.5720 H         1 UNK         0.0000 
     75 H75         1.2719    4.1970    0.2170 H         1 UNK         0.0000 
     76 H76         2.6049    3.8270    1.2500 H         1 UNK         0.0000 
     77 H77         2.7293    2.1749   -1.2327 H         1 UNK         0.0000 
     78 H78         3.9356    3.0971   -0.4290 H         1 UNK         0.0000 
     79 H79         3.8135    4.1678   -2.4602 H         1 UNK         0.0000 
     80 H80         2.7580    5.2065   -1.5643 H         1 UNK         0.0000 
     81 H81         1.8993    2.8726   -3.3883 H         1 UNK         0.0000 
     82 H82         1.9454    4.5431   -3.8717 H         1 UNK         0.0000 
     83 H83         0.0968    3.3487   -1.7417 H         1 UNK         0.0000 
     84 H84         0.2470    5.0573   -2.0422 H         1 UNK         0.0000 
     85 H85        -0.4235    4.5823   -4.4907 H         1 UNK         0.0000 
     86 H86        -1.6593    4.4794   -3.2813 H         1 UNK         0.0000 
     87 H87        -0.1598    2.0940   -4.3762 H         1 UNK         0.0000 
     88 H88        -1.3612    0.3377   -5.2854 H         1 UNK         0.0000 
     89 H89        -3.0626    0.4510   -5.2595 H         1 UNK         0.0000 
     90 H90        -2.2895   -1.5204   -3.9220 H         1 UNK         0.0000 
     91 H91        -3.2750   -0.4657   -3.0148 H         1 UNK         0.0000 
@<TRIPOS>BOND
     1    1    2 nc   
     2    1   15 nc   
     3    1   17 nc   
     4    1   29 nc   
     5    1   31 nc   
     6    1   44 nc   
     7    2    3 1    
     8    3   43 am   BACKBONE|DICT|INTERRES
     9    3    4 1    
    10    4   45 1    
    11    4    5 1    
    12    4   46 1    
    13    5   47 1    
    14    5    6 1    
    15    5   48 1    
    16    6    7 1    
    17    6   49 1    
    18    6   50 1    
    19    7    8 1    
    20    7   51 1    
    21    7   52 1    
    22    8   53 1    
    23    8    9 1    
    24    8   54 1    
    25    9   10 am   BACKBONE|DICT|INTERRES
    26    9   55 1    
    27   10   11 2    
    28   10   12 1    
    29   12   13 1    
    30   12   57 1    
    31   12   56 1    
    32   13   59 1    
    33   13   14 1    
    34   13   58 1    
    35   14   15 2    
    36   14   16 am   BACKBONE|DICT|INTERRES
    37   16   18 1    
    38   16   17 1    
    39   18   60 1    
    40   18   61 1    
    41   18   19 1    
    42   19   20 1    
    43   19   62 1    
    44   19   63 1    
    45   20   64 1    
    46   20   65 1    
    47   20   21 1    
    48   21   67 1    
    49   21   66 1    
    50   21   22 1    
    51   22   69 1    
    52   22   23 1    
    53   22   68 1    
    54   23   70 1    
    55   23   24 am   BACKBONE|DICT|INTERRES
    56   24   25 2    
    57   24   26 1    
    58   26   72 1    
    59   26   27 1    
    60   26   71 1    
    61   27   73 1    
    62   27   28 1    
    63   27   74 1    
    64   28   29 2    
    65   28   30 am   BACKBONE|DICT|INTERRES
    66   30   31 1    
    67   30   32 1    
    68   32   76 1    
    69   32   33 1    
    70   32   75 1    
    71   33   78 1    
    72   33   34 1    
    73   33   77 1    
    74   34   80 1    
    75   34   35 1    
    76   34   79 1    
    77   35   36 1    
    78   35   81 1    
    79   35   82 1    
    80   36   84 1    
    81   36   83 1    
    82   36   37 1    
    83   37   86 1    
    84   37   38 1    
    85   37   85 1    
    86   38   39 am   BACKBONE|DICT|INTERRES
    87   38   87 1    
    88   39   40 2    
    89   39   41 1    
    90   41   42 1    
    91   41   88 1    
    92   41   89 1    
    93   42   91 1    
    94   42   43 1    
    95   42   90 1    
    96   43   44 2    
@<TRIPOS>SUBSTRUCTURE
     1 UNK         1 GROUP             0       ****    0 ROOT    
