@<TRIPOS>MOLECULE
235_c1
46   53    1
SMALL
USER_CHARGES


@<TRIPOS>ATOM
      1 Fe1        -0.6502    1.6440    0.8295 Fe        1 UNK         0.0000 
      2 C2          0.2670   -2.9911    1.6695 C.ar      1 UNK         0.0000 
      3 C3          1.5553   -2.5657    1.9867 C.ar      1 UNK         0.0000 
      4 C4          1.8303   -1.2020    2.0679 C.ar      1 UNK         0.0000 
      5 C5          0.8043   -0.2679    1.9642 C.ar      1 UNK         0.0000 
      6 O6          1.1318    0.9580    1.7996 O.co2     1 UNK         0.0000 
      7 C7         -0.5377   -0.7129    1.8981 C.ar      1 UNK         0.0000 
      8 O8         -1.5108    0.1103    2.0547 O.co2     1 UNK         0.0000 
      9 C9         -0.7828   -2.0648    1.5346 C.ar      1 UNK         0.0000 
     10 C10        -1.9580   -2.4250    0.6693 C.2       1 UNK         0.0000 
     11 O11        -1.6835   -3.4570   -0.1987 O.3       1 UNK         0.0000 
     12 C12        -2.1530   -3.1107   -1.4930 C.3       1 UNK         0.0000 
     13 N13        -2.7814   -1.6115    0.1192 N.2       1 UNK         0.0000 
     14 C14        -2.4152   -1.6186   -1.2850 C.3       1 UNK         0.0000 
     15 H15        -3.2497   -1.2503   -1.8864 H         1 UNK         0.0000 
     16 C16        -1.1639   -0.6865   -1.5640 C.2       1 UNK         0.0000 
     17 O17        -0.9058    0.2467   -0.7909 O.co2     1 UNK         0.0000 
     18 N18        -0.3119   -0.9954   -2.5640 N.am      1 UNK         0.0000 
     19 C19         1.1112   -0.5947   -2.6573 C.3       1 UNK         0.0000 
     20 C20         1.4650    0.9131   -2.7986 C.3       1 UNK         0.0000 
     21 C21         1.5291    1.6287   -1.4417 C.2       1 UNK         0.0000 
     22 N22         0.7248    2.5035   -0.9673 N.am      1 UNK         0.0000 
     23 C23         0.0786    3.4560   -1.8215 C.2       1 UNK         0.0000 
     24 O24         0.4043    3.7232   -2.9854 O.2       1 UNK         0.0000 
     25 C25        -0.8908    4.3079   -1.0273 C.ar      1 UNK         0.0000 
     26 C26        -1.5670    3.6760    0.0252 C.ar      1 UNK         0.0000 
     27 O27        -1.9741    2.4728   -0.0628 O.co2     1 UNK         0.0000 
     28 C28        -1.0638    4.0382    1.2675 C.ar      1 UNK         0.0000 
     29 O29        -0.6397    3.0406    1.9193 O.co2     1 UNK         0.0000 
     30 C30        -0.6421    5.3391    1.5130 C.ar      1 UNK         0.0000 
     31 C31        -0.5459    6.2112    0.4161 C.ar      1 UNK         0.0000 
     32 C32        -0.6075    5.6790   -0.8830 C.ar      1 UNK         0.0000 
     33 H33         0.1173   -4.0373    1.4425 H         1 UNK         0.0000 
     34 H34         2.3643   -3.2765    2.0593 H         1 UNK         0.0000 
     35 H35         2.8483   -0.8673    2.1942 H         1 UNK         0.0000 
     36 H36        -3.0885   -3.6391   -1.6918 H         1 UNK         0.0000 
     37 H37        -1.4372   -3.3674   -2.2773 H         1 UNK         0.0000 
     38 H38        -0.6094   -1.6968   -3.2185 H         1 UNK         0.0000 
     39 H39         1.4870   -1.0776   -3.5605 H         1 UNK         0.0000 
     40 H40         1.6637   -1.0665   -1.8397 H         1 UNK         0.0000 
     41 H41         2.4529    1.0235   -3.2537 H         1 UNK         0.0000 
     42 H42         0.7671    1.3602   -3.5011 H         1 UNK         0.0000 
     43 H43        -0.2218    6.2560   -1.7118 H         1 UNK         0.0000 
     44 H44        -0.2249    7.2315    0.5569 H         1 UNK         0.0000 
     45 H45        -0.2869    5.6361    2.4863 H         1 UNK         0.0000 
     46 H46         2.3064    1.2025   -0.8079 H         1 UNK         0.0000 
@<TRIPOS>BOND
     1    1    6 nc   
     2    1    8 nc   
     3    1   17 nc   
     4    1   22 nc   
     5    1   27 nc   
     6    1   29 nc   
     7    2    3 ar   
     8    2    9 ar   
     9    2   33 1    
    10    3   34 1    
    11    3    4 ar   
    12    4   35 1    
    13    4    5 ar   
    14    5    6 1    
    15    5    7 ar   
    16    7    8 1    
    17    7    9 ar   
    18    9   10 1    
    19   10   11 1    
    20   10   13 2    
    21   11   12 1    
    22   12   36 1    
    23   12   14 1    
    24   12   37 1    
    25   13   14 1    
    26   14   15 1    
    27   14   16 1    
    28   16   17 2    
    29   16   18 am   BACKBONE|DICT|INTERRES
    30   18   19 1    
    31   18   38 1    
    32   19   40 1    
    33   19   20 1    
    34   19   39 1    
    35   20   21 1    
    36   20   41 1    
    37   20   42 1    
    38   21   22 2    
    39   21   46 1    
    40   22   23 am   BACKBONE|DICT|INTERRES
    41   23   24 2    
    42   23   25 1    
    43   25   32 ar   
    44   25   26 ar   
    45   26   27 1    
    46   26   28 ar   
    47   28   30 ar   
    48   28   29 1    
    49   30   31 ar   
    50   30   45 1    
    51   31   32 ar   
    52   31   44 1    
    53   32   43 1    
@<TRIPOS>SUBSTRUCTURE
     1 UNK         1 GROUP             0       ****    0 ROOT    
