@<TRIPOS>MOLECULE
154_c1
132   137    1
SMALL
USER_CHARGES


@<TRIPOS>ATOM
      1 Fe1         0.3482   -3.1153   -0.1535 Fe        1 UNK         0.0000 
      2 O2         -6.4961   -6.5127   -4.8717 O.3       1 UNK         0.0000 
      3 C3         -5.2426   -6.5540   -4.2230 C.3       1 UNK         0.0000 
      4 C4         -4.8509   -5.1280   -3.7991 C.3       1 UNK         0.0000 
      5 C5         -3.4892   -4.9463   -3.1306 C.2       1 UNK         0.0000 
      6 C6         -2.7228   -6.2543   -2.8401 C.3       1 UNK         0.0000 
      7 C7         -3.0754   -3.6758   -2.8677 C.2       1 UNK         0.0000 
      8 C8         -1.8494   -3.3205   -2.1962 C.2       1 UNK         0.0000 
      9 O9         -1.2383   -4.1264   -1.4685 O.co2     1 UNK         0.0000 
     10 N10        -1.2817   -2.0870   -2.3687 N.am      1 UNK         0.0000 
     11 O11        -0.0390   -1.9500   -2.0062 O.co2     1 UNK         0.0000 
     12 C12        -1.9204   -0.7697   -2.6180 C.3       1 UNK         0.0000 
     13 C13        -0.9588    0.4590   -2.9064 C.3       1 UNK         0.0000 
     14 C14        -0.0634    1.0641   -1.7406 C.3       1 UNK         0.0000 
     15 C15         1.1576    1.8746   -2.2797 C.3       1 UNK         0.0000 
     16 H16         1.7550    1.2168   -2.9143 H         1 UNK         0.0000 
     17 N17         2.1020    2.5464   -1.3612 N.am      1 UNK         0.0000 
     18 C18         2.7972    2.3702   -0.2211 C.2       1 UNK         0.0000 
     19 O19         3.6605    3.2124    0.0076 O.2       1 UNK         0.0000 
     20 C20         0.6549    3.0329   -3.1652 C.2       1 UNK         0.0000 
     21 O21         0.8748    3.0423   -4.3711 O.2       1 UNK         0.0000 
     22 N22         0.0451    4.0234   -2.5089 N.am      1 UNK         0.0000 
     23 C23        -0.4353    5.2846   -3.0527 C.3       1 UNK         0.0000 
     24 H24         0.3568    5.7481   -3.6421 H         1 UNK         0.0000 
     25 C25        -1.6831    5.0674   -3.9489 C.3       1 UNK         0.0000 
     26 O26        -2.0562    6.2517   -4.6341 O.3       1 UNK         0.0000 
     27 C27        -0.7207    6.1138   -1.7929 C.2       1 UNK         0.0000 
     28 O28        -1.6214    5.7284   -1.0479 O.2       1 UNK         0.0000 
     29 N29         0.1400    7.1114   -1.5193 N.am      1 UNK         0.0000 
     30 C30         0.0671    8.0683   -0.4009 C.3       1 UNK         0.0000 
     31 H31         1.0788    8.4556   -0.2802 H         1 UNK         0.0000 
     32 C32        -0.8149    9.2797   -0.8080 C.3       1 UNK         0.0000 
     33 O33        -2.1289    8.9288   -1.2094 O.3       1 UNK         0.0000 
     34 C34        -0.2612    7.4461    0.9802 C.2       1 UNK         0.0000 
     35 O35        -1.1136    7.9576    1.7052 O.2       1 UNK         0.0000 
     36 N36         0.4217    6.3465    1.3205 N.am      1 UNK         0.0000 
     37 C37         0.0238    5.5250    2.4511 C.3       1 UNK         0.0000 
     38 C38         1.1624    4.5600    2.7744 C.2       1 UNK         0.0000 
     39 O39         2.2975    4.9986    2.9315 O.2       1 UNK         0.0000 
     40 N40         0.8267    3.2748    2.9707 N.am      1 UNK         0.0000 
     41 C41         1.6140    2.3531    3.7956 C.3       1 UNK         0.0000 
     42 H42         1.8345    2.9561    4.6812 H         1 UNK         0.0000 
     43 C43         0.7864    1.1706    4.3740 C.3       1 UNK         0.0000 
     44 C44         0.3853    0.1473    3.3094 C.3       1 UNK         0.0000 
     45 C45        -0.3686   -1.1467    3.7280 C.3       1 UNK         0.0000 
     46 N46        -0.5163   -2.1370    2.6251 N.am      1 UNK         0.0000 
     47 O47        -0.3270   -1.6443    1.3950 O.co2     1 UNK         0.0000 
     48 C48        -0.6627   -3.4857    2.7908 C.2       1 UNK         0.0000 
     49 O49        -0.4189   -4.1896    1.8049 O.co2     1 UNK         0.0000 
     50 C50        -1.2372   -4.0249    4.0170 C.2       1 UNK         0.0000 
     51 C51        -1.3082   -5.3436    4.3620 C.2       1 UNK         0.0000 
     52 C52        -2.0422   -5.7621    5.6360 C.3       1 UNK         0.0000 
     53 C53        -0.6949   -6.4856    3.5278 C.3       1 UNK         0.0000 
     54 C54        -0.6269   -7.9123    4.1100 C.3       1 UNK         0.0000 
     55 O55        -1.9082   -8.5163    4.1293 O.3       1 UNK         0.0000 
     56 C56         3.0355    1.9794    3.2901 C.2       1 UNK         0.0000 
     57 O57         3.9426    2.0554    4.1129 O.2       1 UNK         0.0000 
     58 N58         3.3508    1.6008    2.0368 N.am      1 UNK         0.0000 
     59 C59         2.6449    1.2070    0.8040 C.3       1 UNK         0.0000 
     60 H60         1.5871    1.0244    0.9864 H         1 UNK         0.0000 
     61 C61         3.3802   -0.0611    0.2543 C.3       1 UNK         0.0000 
     62 C62         3.6883   -1.2288    1.2899 C.3       1 UNK         0.0000 
     63 C63         4.0379   -2.6757    0.7205 C.3       1 UNK         0.0000 
     64 N64         2.8925   -3.3964    0.1013 N.am      1 UNK         0.0000 
     65 O65         1.9471   -2.5693   -0.2178 O.co2     1 UNK         0.0000 
     66 C66         2.6158   -4.7291   -0.0014 C.2       1 UNK         0.0000 
     67 O67         1.4071   -4.9803   -0.1639 O.co2     1 UNK         0.0000 
     68 C68         3.6525   -5.7441   -0.0100 C.2       1 UNK         0.0000 
     69 C69         3.5326   -6.9645   -0.6095 C.2       1 UNK         0.0000 
     70 C70         4.6618   -7.9785   -0.4447 C.3       1 UNK         0.0000 
     71 C71         2.3114   -7.3881   -1.4695 C.3       1 UNK         0.0000 
     72 C72         2.2775   -8.7308   -2.2293 C.3       1 UNK         0.0000 
     73 O73         3.2610   -8.7791   -3.2458 O.3       1 UNK         0.0000 
     74 H74        -6.7295   -7.3894   -5.1972 H         1 UNK         0.0000 
     75 H75        -4.5045   -6.9786   -4.9064 H         1 UNK         0.0000 
     76 H76        -5.3110   -7.2220   -3.3602 H         1 UNK         0.0000 
     77 H77        -4.8958   -4.4759   -4.6720 H         1 UNK         0.0000 
     78 H78        -5.6055   -4.7570   -3.1056 H         1 UNK         0.0000 
     79 H79        -3.3064   -6.8859   -2.1717 H         1 UNK         0.0000 
     80 H80        -2.5455   -6.8037   -3.7646 H         1 UNK         0.0000 
     81 H81        -1.7373   -6.1654   -2.3892 H         1 UNK         0.0000 
     82 H82        -2.6168   -0.8765   -3.4506 H         1 UNK         0.0000 
     83 H83        -2.5365   -0.5053   -1.7553 H         1 UNK         0.0000 
     84 H84        -0.3136    0.1567   -3.7332 H         1 UNK         0.0000 
     85 H85        -1.5659    1.2634   -3.3256 H         1 UNK         0.0000 
     86 H86        -0.6810    1.6942   -1.0980 H         1 UNK         0.0000 
     87 H87         0.3374    0.2894   -1.0912 H         1 UNK         0.0000 
     88 H88         2.4575    3.3654   -1.8321 H         1 UNK         0.0000 
     89 H89        -0.1158    3.9329   -1.5158 H         1 UNK         0.0000 
     90 H90        -1.4901    4.2993   -4.6987 H         1 UNK         0.0000 
     91 H91        -2.5307    4.7161   -3.3576 H         1 UNK         0.0000 
     92 H92        -2.9729    6.1698   -4.9115 H         1 UNK         0.0000 
     93 H93         0.8860    7.2668   -2.1744 H         1 UNK         0.0000 
     94 H94        -0.8709    9.9981    0.0118 H         1 UNK         0.0000 
     95 H95        -0.3466    9.8056   -1.6404 H         1 UNK         0.0000 
     96 H96        -2.7141    9.6775   -1.0720 H         1 UNK         0.0000 
     97 H97         1.2245    6.0406    0.7931 H         1 UNK         0.0000 
     98 H98        -0.9035    5.0004    2.2223 H         1 UNK         0.0000 
     99 H99        -0.1552    6.1465    3.3319 H         1 UNK         0.0000 
    100 H100       -0.1095    2.9755    2.7532 H         1 UNK         0.0000 
    101 H101        1.3880    0.6756    5.1365 H         1 UNK         0.0000 
    102 H102       -0.0909    1.5639    4.8903 H         1 UNK         0.0000 
    103 H103       -0.2179    0.6562    2.5586 H         1 UNK         0.0000 
    104 H104        1.2986   -0.1818    2.8326 H         1 UNK         0.0000 
    105 H105       -1.3566   -0.8788    4.1012 H         1 UNK         0.0000 
    106 H106        0.1290   -1.5843    4.6002 H         1 UNK         0.0000 
    107 H107       -1.6732   -3.2857    4.6688 H         1 UNK         0.0000 
    108 H108       -2.4673   -4.9133    6.1708 H         1 UNK         0.0000 
    109 H109       -2.8729   -6.4276    5.3947 H         1 UNK         0.0000 
    110 H110       -1.3791   -6.2817    6.3258 H         1 UNK         0.0000 
    111 H111        0.3294   -6.1939    3.2969 H         1 UNK         0.0000 
    112 H112       -1.2196   -6.5386    2.5731 H         1 UNK         0.0000 
    113 H113       -0.1807   -7.9128    5.1055 H         1 UNK         0.0000 
    114 H114        0.0238   -8.5288    3.4840 H         1 UNK         0.0000 
    115 H115       -1.8754   -9.3256    4.6476 H         1 UNK         0.0000 
    116 H116        4.3438    1.6323    1.8757 H         1 UNK         0.0000 
    117 H117        2.7976   -0.3846   -0.6051 H         1 UNK         0.0000 
    118 H118        4.3318    0.2357   -0.1902 H         1 UNK         0.0000 
    119 H119        4.5097   -0.9029    1.9299 H         1 UNK         0.0000 
    120 H120        2.8440   -1.3511    1.9670 H         1 UNK         0.0000 
    121 H121        4.4864   -3.2906    1.5053 H         1 UNK         0.0000 
    122 H122        4.8084   -2.5653   -0.0434 H         1 UNK         0.0000 
    123 H123        4.8365   -8.1557    0.6174 H         1 UNK         0.0000 
    124 H124        5.5839   -7.6027   -0.8933 H         1 UNK         0.0000 
    125 H125        4.4618   -8.9529   -0.8910 H         1 UNK         0.0000 
    126 H126        1.4460   -7.4083   -0.8123 H         1 UNK         0.0000 
    127 H127        2.1230   -6.6036   -2.2045 H         1 UNK         0.0000 
    128 H128        2.3752   -9.5719   -1.5412 H         1 UNK         0.0000 
    129 H129        1.2970   -8.8452   -2.7015 H         1 UNK         0.0000 
    130 H130        3.2212   -9.6282   -3.6965 H         1 UNK         0.0000 
    131 H131       -3.6764   -2.8290   -3.1698 H         1 UNK         0.0000 
    132 H132        4.5610   -5.4786    0.5047 H         1 UNK         0.0000 
@<TRIPOS>BOND
     1    1    9 nc   
     2    1   11 nc   
     3    1   47 nc   
     4    1   49 nc   
     5    1   65 nc   
     6    1   67 nc   
     7    2    3 1    
     8    2   74 1    
     9    3    4 1    
    10    3   76 1    
    11    3   75 1    
    12    4   78 1    
    13    4    5 1    
    14    4   77 1    
    15    5    7 2    
    16    5    6 1    
    17    6   81 1    
    18    6   79 1    
    19    6   80 1    
    20    7    8 1    
    21    7  131 1    
    22    8   10 am   BACKBONE|DICT|INTERRES
    23    8    9 2    
    24   10   11 1    
    25   10   12 1    
    26   12   83 1    
    27   12   13 1    
    28   12   82 1    
    29   13   14 1    
    30   13   84 1    
    31   13   85 1    
    32   14   87 1    
    33   14   86 1    
    34   14   15 1    
    35   15   16 1    
    36   15   17 1    
    37   15   20 1    
    38   17   18 am   BACKBONE|DICT|INTERRES
    39   17   88 1    
    40   18   19 2    
    41   18   59 1    
    42   20   22 am   BACKBONE|DICT|INTERRES
    43   20   21 2    
    44   22   89 1    
    45   22   23 1    
    46   23   24 1    
    47   23   27 1    
    48   23   25 1    
    49   25   91 1    
    50   25   26 1    
    51   25   90 1    
    52   26   92 1    
    53   27   29 am   BACKBONE|DICT|INTERRES
    54   27   28 2    
    55   29   30 1    
    56   29   93 1    
    57   30   31 1    
    58   30   34 1    
    59   30   32 1    
    60   32   94 1    
    61   32   33 1    
    62   32   95 1    
    63   33   96 1    
    64   34   36 am   BACKBONE|DICT|INTERRES
    65   34   35 2    
    66   36   37 1    
    67   36   97 1    
    68   37   38 1    
    69   37   99 1    
    70   37   98 1    
    71   38   40 am   BACKBONE|DICT|INTERRES
    72   38   39 2    
    73   40   41 1    
    74   40  100 1    
    75   41   43 1    
    76   41   42 1    
    77   41   56 1    
    78   43  102 1    
    79   43  101 1    
    80   43   44 1    
    81   44   45 1    
    82   44  103 1    
    83   44  104 1    
    84   45  105 1    
    85   45  106 1    
    86   45   46 1    
    87   46   48 am   BACKBONE|DICT|INTERRES
    88   46   47 1    
    89   48   50 1    
    90   48   49 2    
    91   50   51 2    
    92   50  107 1    
    93   51   52 1    
    94   51   53 1    
    95   52  108 1    
    96   52  110 1    
    97   52  109 1    
    98   53   54 1    
    99   53  111 1    
   100   53  112 1    
   101   54   55 1    
   102   54  113 1    
   103   54  114 1    
   104   55  115 1    
   105   56   57 2    
   106   56   58 am   BACKBONE|DICT|INTERRES
   107   58   59 1    
   108   58  116 1    
   109   59   60 1    
   110   59   61 1    
   111   61   62 1    
   112   61  117 1    
   113   61  118 1    
   114   62  120 1    
   115   62  119 1    
   116   62   63 1    
   117   63  121 1    
   118   63   64 1    
   119   63  122 1    
   120   64   65 1    
   121   64   66 am   BACKBONE|DICT|INTERRES
   122   66   68 1    
   123   66   67 2    
   124   68   69 2    
   125   68  132 1    
   126   69   70 1    
   127   69   71 1    
   128   70  123 1    
   129   70  124 1    
   130   70  125 1    
   131   71  126 1    
   132   71   72 1    
   133   71  127 1    
   134   72  128 1    
   135   72   73 1    
   136   72  129 1    
   137   73  130 1    
@<TRIPOS>SUBSTRUCTURE
     1 UNK         1 GROUP             0       ****    0 ROOT    
