@<TRIPOS>MOLECULE
006_Ch_c3
104   109    1
SMALL
USER_CHARGES


@<TRIPOS>ATOM
      1 Fe1         0.1648    0.6708    0.1366 Fe        1 UNK         0.0000 
      2 O2         -5.0298   -3.7039    5.3252 O.3       1 UNK         0.0000 
      3 C3         -4.4670   -2.6226    4.6329 C.3       1 UNK         0.0000 
      4 C4         -3.2381   -3.0870    3.8392 C.3       1 UNK         0.0000 
      5 C5         -2.5086   -1.9990    3.0572 C.2       1 UNK         0.0000 
      6 C6         -3.0556   -0.5874    3.0534 C.3       1 UNK         0.0000 
      7 C7         -1.3706   -2.3818    2.4202 C.2       1 UNK         0.0000 
      8 C8         -0.3830   -1.5310    1.6839 C.2       1 UNK         0.0000 
      9 O9         -0.4585   -0.3147    1.5554 O.co2     1 UNK         0.0000 
     10 N10         0.6965   -1.9756    1.0678 N.am      1 UNK         0.0000 
     11 O11         1.4112   -0.9305    0.6675 O.co2     1 UNK         0.0000 
     12 C12         1.0470   -3.3376    0.7004 C.3       1 UNK         0.0000 
     13 C13         0.7217   -3.5366   -0.7969 C.3       1 UNK         0.0000 
     14 C14         1.0630   -4.9514   -1.2862 C.3       1 UNK         0.0000 
     15 C15         0.4214   -5.2994   -2.6560 C.3       1 UNK         0.0000 
     16 H16        -0.6809   -5.1869   -2.5381 H         1 UNK         0.0000 
     17 N17         0.6978   -6.7037   -2.9887 N.4       1 UNK         0.0000 
     18 H18         0.3302   -7.3316   -2.2366 H         1 UNK         0.0000 
     19 H19         0.2222   -6.9605   -3.8846 H         1 UNK         0.0000 
     20 H20         1.7273   -6.8631   -3.0891 H         1 UNK         0.0000 
     21 C21         0.8476   -4.4148   -3.8140 C.2       1 UNK         0.0000 
     22 O22         2.0117   -4.4106   -4.1867 O.2       1 UNK         0.0000 
     23 O23        -0.0969   -3.6854   -4.4709 O.3       1 UNK         0.0000 
     24 C24        -0.0274   -3.2523   -5.7905 C.3       1 UNK         0.0000 
     25 C25         0.4262   -1.7896   -5.8863 C.3       1 UNK         0.0000 
     26 C26        -0.4325   -0.8696   -5.0300 C.2       1 UNK         0.0000 
     27 C27        -1.8459   -0.5960   -5.4461 C.3       1 UNK         0.0000 
     28 C28         0.1187   -0.4413   -3.8759 C.2       1 UNK         0.0000 
     29 C29        -0.3934    0.3123   -2.7038 C.2       1 UNK         0.0000 
     30 O30         0.1373    0.0717   -1.6635 O.co2     1 UNK         0.0000 
     31 N31        -1.2917    1.2407   -2.4701 N.am      1 UNK         0.0000 
     32 O32        -1.2761    1.4371   -1.1401 O.co2     1 UNK         0.0000 
     33 C33        -2.0327    2.0572   -3.4119 C.3       1 UNK         0.0000 
     34 C34        -2.8841    3.1339   -2.7015 C.3       1 UNK         0.0000 
     35 C35        -3.6058    4.0750   -3.6882 C.3       1 UNK         0.0000 
     36 C36        -2.7971    5.2990   -4.2099 C.3       1 UNK         0.0000 
     37 H37        -3.4277    5.7806   -4.9893 H         1 UNK         0.0000 
     38 N38        -1.5500    4.8993   -4.8333 N.am      1 UNK         0.0000 
     39 C39        -0.3278    5.3853   -4.4837 C.2       1 UNK         0.0000 
     40 O40         0.6608    4.9897   -5.0846 O.2       1 UNK         0.0000 
     41 C41        -0.1462    6.4386   -3.4062 C.3       1 UNK         0.0000 
     42 H42         0.3020    7.3271   -3.9042 H         1 UNK         0.0000 
     43 N43        -1.3964    6.8527   -2.8016 N.am      1 UNK         0.0000 
     44 C44        -2.6122    6.3485   -3.1320 C.2       1 UNK         0.0000 
     45 O45        -3.6043    6.7893   -2.5700 O.2       1 UNK         0.0000 
     46 C46         0.8420    5.9985   -2.3016 C.3       1 UNK         0.0000 
     47 C47         0.3289    4.8249   -1.4592 C.3       1 UNK         0.0000 
     48 C48         1.3463    4.4107   -0.3864 C.3       1 UNK         0.0000 
     49 N49         0.8627    3.2380    0.3090 N.am      1 UNK         0.0000 
     50 O50         1.3049    1.9873    0.1958 O.co2     1 UNK         0.0000 
     51 C51        -0.0827    3.0197    1.1394 C.2       1 UNK         0.0000 
     52 O52        -0.1300    1.7738    1.2043 O.co2     1 UNK         0.0000 
     53 C53        -0.9139    4.0469    1.8145 C.2       1 UNK         0.0000 
     54 C54        -1.6513    3.8962    2.9405 C.2       1 UNK         0.0000 
     55 C55        -1.7274    2.5972    3.7139 C.3       1 UNK         0.0000 
     56 C56        -2.3583    5.1458    3.4544 C.3       1 UNK         0.0000 
     57 C57        -3.0782    5.0138    4.8021 C.3       1 UNK         0.0000 
     58 O58        -4.1407    4.1075    4.7081 O.3       1 UNK         0.0000 
     59 H59        -4.4704   -3.8475    6.1337 H         1 UNK         0.0000 
     60 H60        -5.2358   -2.2140    3.9453 H         1 UNK         0.0000 
     61 H61        -4.1949   -1.8174    5.3535 H         1 UNK         0.0000 
     62 H62        -3.5485   -3.8913    3.1370 H         1 UNK         0.0000 
     63 H63        -2.5196   -3.5179    4.5719 H         1 UNK         0.0000 
     64 H64        -3.0628   -0.1863    4.0874 H         1 UNK         0.0000 
     65 H65        -4.0919   -0.5969    2.6582 H         1 UNK         0.0000 
     66 H66        -2.5092    0.1193    2.4171 H         1 UNK         0.0000 
     67 H67         0.4599   -4.0831    1.2671 H         1 UNK         0.0000 
     68 H68         2.1204   -3.5176    0.9225 H         1 UNK         0.0000 
     69 H69         1.2536   -2.7907   -1.4269 H         1 UNK         0.0000 
     70 H70        -0.3730   -3.3731   -0.9102 H         1 UNK         0.0000 
     71 H71         2.1664   -5.0865   -1.3083 H         1 UNK         0.0000 
     72 H72         0.6431   -5.6741   -0.5514 H         1 UNK         0.0000 
     73 H73         0.6769   -3.8836   -6.3781 H         1 UNK         0.0000 
     74 H74        -1.0331   -3.3743   -6.2446 H         1 UNK         0.0000 
     75 H75         1.4872   -1.7816   -5.5509 H         1 UNK         0.0000 
     76 H76         0.4318   -1.4358   -6.9391 H         1 UNK         0.0000 
     77 H77        -1.9556    0.4734   -5.6995 H         1 UNK         0.0000 
     78 H78        -2.5489   -0.9113   -4.6457 H         1 UNK         0.0000 
     79 H79        -2.0984   -1.1587   -6.3690 H         1 UNK         0.0000 
     80 H80         1.1203   -0.8145   -3.6692 H         1 UNK         0.0000 
     81 H81        -1.2962    2.5286   -4.0874 H         1 UNK         0.0000 
     82 H82        -2.7351    1.4299   -3.9841 H         1 UNK         0.0000 
     83 H83        -3.6595    2.5733   -2.1348 H         1 UNK         0.0000 
     84 H84        -2.3069    3.7361   -1.9722 H         1 UNK         0.0000 
     85 H85        -4.5031    4.4879   -3.1776 H         1 UNK         0.0000 
     86 H86        -3.9889    3.4697   -4.5384 H         1 UNK         0.0000 
     87 H87        -1.6040    4.2197   -5.6077 H         1 UNK         0.0000 
     88 H88        -1.3527    7.5917   -2.0820 H         1 UNK         0.0000 
     89 H89         1.8147    5.7295   -2.7698 H         1 UNK         0.0000 
     90 H90         1.0229    6.8622   -1.6238 H         1 UNK         0.0000 
     91 H91        -0.6283    5.1044   -0.9733 H         1 UNK         0.0000 
     92 H92         0.1515    3.9568   -2.1309 H         1 UNK         0.0000 
     93 H93         1.5639    5.2273    0.3343 H         1 UNK         0.0000 
     94 H94         2.2877    4.1413   -0.9131 H         1 UNK         0.0000 
     95 H95        -0.8605    5.0427    1.3828 H         1 UNK         0.0000 
     96 H96        -2.7774    2.2506    3.7639 H         1 UNK         0.0000 
     97 H97        -1.1231    1.7807    3.2930 H         1 UNK         0.0000 
     98 H98        -1.3415    2.7548    4.7415 H         1 UNK         0.0000 
     99 H99        -3.0863    5.4944    2.6895 H         1 UNK         0.0000 
    100 H100       -1.5873    5.9376    3.5846 H         1 UNK         0.0000 
    101 H101       -3.4791    6.0132    5.0802 H         1 UNK         0.0000 
    102 H102       -2.3500    4.6912    5.5802 H         1 UNK         0.0000 
    103 H103       -4.4888    3.9990    5.6311 H         1 UNK         0.0000 
    104 H104       -1.0837   -3.4229    2.4061 H         1 UNK         0.0000 
@<TRIPOS>BOND
     1    1    9 nc   
     2    1   11 nc   
     3    1   30 nc   
     4    1   32 nc   
     5    1   50 nc   
     6    1   52 nc   
     7    2   59 1    
     8    2    3 1    
     9    3   61 1    
    10    3    4 1    
    11    3   60 1    
    12    4   63 1    
    13    4    5 1    
    14    4   62 1    
    15    5    7 2    
    16    5    6 1    
    17    6   64 1    
    18    6   65 1    
    19    6   66 1    
    20    7    8 1    
    21    7  104 1    
    22    8    9 2    
    23    8   10 am   BACKBONE|DICT|INTERRES
    24   10   11 1    
    25   10   12 1    
    26   12   68 1    
    27   12   67 1    
    28   12   13 1    
    29   13   14 1    
    30   13   69 1    
    31   13   70 1    
    32   14   72 1    
    33   14   15 1    
    34   14   71 1    
    35   15   16 1    
    36   15   17 1    
    37   15   21 1    
    38   17   18 1    
    39   17   19 1    
    40   17   20 1    
    41   21   22 2    
    42   21   23 1    
    43   23   24 1    
    44   24   25 1    
    45   24   73 1    
    46   24   74 1    
    47   25   75 1    
    48   25   26 1    
    49   25   76 1    
    50   26   28 2    
    51   26   27 1    
    52   27   78 1    
    53   27   77 1    
    54   27   79 1    
    55   28   80 1    
    56   28   29 1    
    57   29   31 am   BACKBONE|DICT|INTERRES
    58   29   30 2    
    59   31   32 1    
    60   31   33 1    
    61   33   34 1    
    62   33   81 1    
    63   33   82 1    
    64   34   83 1    
    65   34   84 1    
    66   34   35 1    
    67   35   85 1    
    68   35   36 1    
    69   35   86 1    
    70   36   37 1    
    71   36   44 1    
    72   36   38 1    
    73   38   39 am   BACKBONE|DICT|INTERRES
    74   38   87 1    
    75   39   41 1    
    76   39   40 2    
    77   41   42 1    
    78   41   43 1    
    79   41   46 1    
    80   43   88 1    
    81   43   44 am   BACKBONE|DICT|INTERRES
    82   44   45 2    
    83   46   90 1    
    84   46   47 1    
    85   46   89 1    
    86   47   91 1    
    87   47   48 1    
    88   47   92 1    
    89   48   49 1    
    90   48   93 1    
    91   48   94 1    
    92   49   51 am   BACKBONE|DICT|INTERRES
    93   49   50 1    
    94   51   52 2    
    95   51   53 1    
    96   53   54 2    
    97   53   95 1    
    98   54   56 1    
    99   54   55 1    
   100   55   96 1    
   101   55   98 1    
   102   55   97 1    
   103   56  100 1    
   104   56   57 1    
   105   56   99 1    
   106   57  101 1    
   107   57  102 1    
   108   57   58 1    
   109   58  103 1    
@<TRIPOS>SUBSTRUCTURE
     1 UNK         1 GROUP             0       ****    0 ROOT    
