@<TRIPOS>MOLECULE
055_c1
66   70    1
SMALL
USER_CHARGES


@<TRIPOS>ATOM
      1 Fe1         0.4473    0.6503    1.4316 Fe        1 UNK         0.0000 
      2 O2          1.2141   -0.1457    3.3381 O.co2     1 UNK         0.0000 
      3 C3          0.5338   -1.1125    3.6922 C.2       1 UNK         0.0000 
      4 C4          0.4569   -1.5764    5.1473 C.3       1 UNK         0.0000 
      5 N5         -0.1988   -1.6188    2.6820 N.am      1 UNK         0.0000 
      6 O6         -0.0214   -1.1082    1.4925 O.co2     1 UNK         0.0000 
      7 C7         -1.2782   -2.6316    2.7420 C.3       1 UNK         0.0000 
      8 C8         -1.1174   -3.7813    1.7034 C.3       1 UNK         0.0000 
      9 C9         -2.4142   -4.1185    0.9257 C.3       1 UNK         0.0000 
     10 C10        -2.1778   -4.9625   -0.3501 C.3       1 UNK         0.0000 
     11 C11        -1.1716   -4.4014   -1.3791 C.3       1 UNK         0.0000 
     12 N12        -1.3571   -2.9800   -1.7123 N.am      1 UNK         0.0000 
     13 C13        -0.3916   -2.0460   -1.6336 C.2       1 UNK         0.0000 
     14 O14         0.7116   -2.2884   -1.1635 O.2       1 UNK         0.0000 
     15 C15        -0.7003   -0.6569   -2.2339 C.3       1 UNK         0.0000 
     16 C16        -0.1609    0.6722   -1.5693 C.2       1 UNK         0.0000 
     17 O17        -0.7232    0.8282   -0.4776 O.co2     1 UNK         0.0000 
     18 C18         1.3876    0.5948   -1.2859 C.2       1 UNK         0.0000 
     19 O19         1.6648    0.6838   -0.0420 O.co2     1 UNK         0.0000 
     20 O20         2.1807    0.3829   -2.2232 O.co2     1 UNK         0.0000 
     21 C21        -0.5411    1.8691   -2.5363 C.3       1 UNK         0.0000 
     22 C22         0.1140    3.2598   -2.3870 C.2       1 UNK         0.0000 
     23 O23         1.3298    3.3622   -2.3365 O.2       1 UNK         0.0000 
     24 N24        -0.6756    4.3510   -2.3443 N.am      1 UNK         0.0000 
     25 C25        -0.1631    5.7362   -2.3444 C.3       1 UNK         0.0000 
     26 C26        -0.5443    6.5863   -1.1100 C.3       1 UNK         0.0000 
     27 C27         0.1608    6.2338    0.2246 C.3       1 UNK         0.0000 
     28 C28        -0.2233    4.8553    0.7612 C.3       1 UNK         0.0000 
     29 C29         0.2995    4.4952    2.1641 C.3       1 UNK         0.0000 
     30 N30         0.0569    3.0629    2.3942 N.am      1 UNK         0.0000 
     31 O31         1.0269    2.2510    1.9780 O.co2     1 UNK         0.0000 
     32 C32        -1.1787    2.5525    2.5513 C.2       1 UNK         0.0000 
     33 O33        -1.2556    1.3720    2.2006 O.co2     1 UNK         0.0000 
     34 C34        -2.4024    3.3597    2.9773 C.3       1 UNK         0.0000 
     35 H35         1.4204   -1.9707    5.4588 H         1 UNK         0.0000 
     36 H36         0.2152   -0.7329    5.7925 H         1 UNK         0.0000 
     37 H37        -0.2885   -2.3482    5.3224 H         1 UNK         0.0000 
     38 H38        -2.1948   -2.0688    2.5398 H         1 UNK         0.0000 
     39 H39        -1.4282   -3.0641    3.7309 H         1 UNK         0.0000 
     40 H40        -0.7144   -4.6643    2.2036 H         1 UNK         0.0000 
     41 H41        -0.3471   -3.5066    0.9786 H         1 UNK         0.0000 
     42 H42        -3.0939   -4.6611    1.5904 H         1 UNK         0.0000 
     43 H43        -2.9256   -3.1970    0.6310 H         1 UNK         0.0000 
     44 H44        -1.8432   -5.9596   -0.0612 H         1 UNK         0.0000 
     45 H45        -3.1353   -5.1171   -0.8463 H         1 UNK         0.0000 
     46 H46        -1.2512   -4.9635   -2.3107 H         1 UNK         0.0000 
     47 H47        -0.1599   -4.5882   -1.0066 H         1 UNK         0.0000 
     48 H48        -2.2361   -2.7146   -2.1210 H         1 UNK         0.0000 
     49 H49        -0.2943   -0.7178   -3.2420 H         1 UNK         0.0000 
     50 H50        -1.7792   -0.5627   -2.3424 H         1 UNK         0.0000 
     51 H51        -0.3139    1.5868   -3.5611 H         1 UNK         0.0000 
     52 H52        -1.6179    1.9931   -2.5232 H         1 UNK         0.0000 
     53 H53        -1.6721    4.2304   -2.4193 H         1 UNK         0.0000 
     54 H54        -0.5068    6.2329   -3.2522 H         1 UNK         0.0000 
     55 H55         0.9286    5.7501   -2.4188 H         1 UNK         0.0000 
     56 H56        -0.2790    7.6183   -1.3392 H         1 UNK         0.0000 
     57 H57        -1.6283    6.5961   -0.9824 H         1 UNK         0.0000 
     58 H58        -0.0983    6.9925    0.9703 H         1 UNK         0.0000 
     59 H59         1.2468    6.2697    0.0894 H         1 UNK         0.0000 
     60 H60         0.1740    4.1016    0.0857 H         1 UNK         0.0000 
     61 H61        -1.3122    4.7769    0.7403 H         1 UNK         0.0000 
     62 H62        -0.1679    5.1084    2.9352 H         1 UNK         0.0000 
     63 H63         1.3689    4.7312    2.2360 H         1 UNK         0.0000 
     64 H64        -2.7963    3.9587    2.1531 H         1 UNK         0.0000 
     65 H65        -3.1839    2.6648    3.2817 H         1 UNK         0.0000 
     66 H66        -2.1663    4.0078    3.8205 H         1 UNK         0.0000 
@<TRIPOS>BOND
     1    1    2 nc   
     2    1    6 nc   
     3    1   17 nc   
     4    1   19 nc   
     5    1   31 nc   
     6    1   33 nc   
     7    2    3 2    
     8    3    4 1    
     9    3    5 am   BACKBONE|DICT|INTERRES
    10    4   37 1    
    11    4   35 1    
    12    4   36 1    
    13    5    6 1    
    14    5    7 1    
    15    7   39 1    
    16    7    8 1    
    17    7   38 1    
    18    8   40 1    
    19    8    9 1    
    20    8   41 1    
    21    9   42 1    
    22    9   10 1    
    23    9   43 1    
    24   10   44 1    
    25   10   11 1    
    26   10   45 1    
    27   11   47 1    
    28   11   12 1    
    29   11   46 1    
    30   12   13 am   BACKBONE|DICT|INTERRES
    31   12   48 1    
    32   13   14 2    
    33   13   15 1    
    34   15   16 1    
    35   15   49 1    
    36   15   50 1    
    37   16   18 1    
    38   16   17 2    
    39   16   21 1    
    40   18   19 1    
    41   18   20 2    
    42   21   22 1    
    43   21   51 1    
    44   21   52 1    
    45   22   24 am   BACKBONE|DICT|INTERRES
    46   22   23 2    
    47   24   25 1    
    48   24   53 1    
    49   25   26 1    
    50   25   54 1    
    51   25   55 1    
    52   26   57 1    
    53   26   27 1    
    54   26   56 1    
    55   27   28 1    
    56   27   58 1    
    57   27   59 1    
    58   28   61 1    
    59   28   29 1    
    60   28   60 1    
    61   29   30 1    
    62   29   62 1    
    63   29   63 1    
    64   30   32 am   BACKBONE|DICT|INTERRES
    65   30   31 1    
    66   32   34 1    
    67   32   33 2    
    68   34   65 1    
    69   34   66 1    
    70   34   64 1    
@<TRIPOS>SUBSTRUCTURE
     1 UNK         1 GROUP             0       ****    0 ROOT    
