@<TRIPOS>MOLECULE
193_c1
109   114    1
SMALL
USER_CHARGES


@<TRIPOS>ATOM
      1 Fe1         0.0019    0.0474    0.0744 Fe        1 UNK         0.0000 
      2 C2         -0.4332    7.0021   -1.2342 C.3       1 UNK         0.0000 
      3 C3          0.6035    5.9053   -1.5158 C.3       1 UNK         0.0000 
      4 C4          0.2023    5.1319   -2.8020 C.3       1 UNK         0.0000 
      5 C5          0.7495    4.9781   -0.2808 C.3       1 UNK         0.0000 
      6 C6          1.7689    3.8064   -0.5297 C.3       1 UNK         0.0000 
      7 N7          1.4700    2.4985    0.0936 N.pl3     1 UNK         0.0000 
      8 O8          0.1752    2.2577    0.2679 O.co2     1 UNK         0.0000 
      9 C9          3.2463    4.1600   -0.1758 C.2       1 UNK         0.0000 
     10 N10         4.1653    3.2942    0.0595 N.2       1 UNK         0.0000 
     11 C11         3.7916    1.9624    0.0482 C.2       1 UNK         0.0000 
     12 C12         2.4901    1.5411    0.1112 C.2       1 UNK         0.0000 
     13 O13         2.1401    0.3107    0.0017 O.co2     1 UNK         0.0000 
     14 C14         4.9960    1.0218   -0.0234 C.3       1 UNK         0.0000 
     15 C15         5.8890    1.0179    1.2482 C.3       1 UNK         0.0000 
     16 C16         5.0622    0.7568    2.5318 C.3       1 UNK         0.0000 
     17 C17         7.0368   -0.0050    1.1172 C.3       1 UNK         0.0000 
     18 H18        -1.4133    6.5529   -1.0795 H         1 UNK         0.0000 
     19 H19        -0.5143    7.6974   -2.0649 H         1 UNK         0.0000 
     20 H20        -0.1889    7.5680   -0.3397 H         1 UNK         0.0000 
     21 H21         1.5727    6.3815   -1.6793 H         1 UNK         0.0000 
     22 H22        -0.6630    4.4949   -2.5995 H         1 UNK         0.0000 
     23 H23        -0.0513    5.8010   -3.6245 H         1 UNK         0.0000 
     24 H24         0.9859    4.4659   -3.1748 H         1 UNK         0.0000 
     25 H25         0.9997    5.5333    0.6207 H         1 UNK         0.0000 
     26 H26        -0.2439    4.5860   -0.0556 H         1 UNK         0.0000 
     27 H27         3.5496    5.1935   -0.1816 H         1 UNK         0.0000 
     28 H28         4.6371    0.0014   -0.2007 H         1 UNK         0.0000 
     29 H29         5.5711    1.2899   -0.9117 H         1 UNK         0.0000 
     30 H30         6.3254    2.0203    1.3284 H         1 UNK         0.0000 
     31 H31         4.5874   -0.2263    2.4985 H         1 UNK         0.0000 
     32 H32         4.2531    1.4874    2.6355 H         1 UNK         0.0000 
     33 H33         5.6731    0.8188    3.4312 H         1 UNK         0.0000 
     34 H34         7.7186    0.0688    1.9624 H         1 UNK         0.0000 
     35 H35         6.6429   -1.0218    1.0875 H         1 UNK         0.0000 
     36 H36         7.6066    0.1588    0.2028 H         1 UNK         0.0000 
     37 C37        -1.0030   -7.0189   -0.2853 C.3       1 UNK         0.0000 
     38 C38        -1.2844   -5.8920    0.7203 C.3       1 UNK         0.0000 
     39 C39        -2.6364   -5.2064    0.3737 C.3       1 UNK         0.0000 
     40 C40        -0.0980   -4.8902    0.7552 C.3       1 UNK         0.0000 
     41 C41        -0.3443   -3.7212    1.7751 C.3       1 UNK         0.0000 
     42 N42         0.2432   -2.3953    1.4609 N.pl3     1 UNK         0.0000 
     43 O43         0.3591   -2.1483    0.1532 O.co2     1 UNK         0.0000 
     44 C44         0.0714   -4.0768    3.2379 C.2       1 UNK         0.0000 
     45 N45         0.3321   -3.2158    4.1528 N.2       1 UNK         0.0000 
     46 C46         0.2551   -1.8803    3.7925 C.2       1 UNK         0.0000 
     47 C47         0.2566   -1.4460    2.4949 C.2       1 UNK         0.0000 
     48 O48         0.0179   -0.2150    2.1870 O.co2     1 UNK         0.0000 
     49 C49         0.1657   -0.9538    5.0064 C.3       1 UNK         0.0000 
     50 C50         1.4749   -0.8601    5.8355 C.3       1 UNK         0.0000 
     51 C51         2.7050   -0.5373    4.9501 C.3       1 UNK         0.0000 
     52 C52         1.3369    0.1700    6.9736 C.3       1 UNK         0.0000 
     53 H53        -0.9164   -6.6070   -1.2896 H         1 UNK         0.0000 
     54 H54        -1.8052   -7.7523   -0.2928 H         1 UNK         0.0000 
     55 H55        -0.0736   -7.5352   -0.0615 H         1 UNK         0.0000 
     56 H56        -1.3644   -6.3382    1.7150 H         1 UNK         0.0000 
     57 H57        -2.5251   -4.5936   -0.5243 H         1 UNK         0.0000 
     58 H58        -3.4335   -5.9299    0.1985 H         1 UNK         0.0000 
     59 H59        -2.9997   -4.5278    1.1529 H         1 UNK         0.0000 
     60 H60         0.8484   -5.3900    0.9581 H         1 UNK         0.0000 
     61 H61         0.0364   -4.5086   -0.2598 H         1 UNK         0.0000 
     62 H62         0.0972   -5.1137    3.5354 H         1 UNK         0.0000 
     63 H63        -0.1014    0.0530    4.6640 H         1 UNK         0.0000 
     64 H64        -0.6796   -1.2823    5.6158 H         1 UNK         0.0000 
     65 H65         1.6287   -1.8517    6.2742 H         1 UNK         0.0000 
     66 H66         2.5953    0.4353    4.4645 H         1 UNK         0.0000 
     67 H67         2.8197   -1.2727    4.1472 H         1 UNK         0.0000 
     68 H68         3.6302   -0.5367    5.5240 H         1 UNK         0.0000 
     69 H69         2.2145    0.1538    7.6160 H         1 UNK         0.0000 
     70 H70         1.2333    1.1783    6.5696 H         1 UNK         0.0000 
     71 H71         0.4591   -0.0348    7.5860 H         1 UNK         0.0000 
     72 C72        -7.0096   -1.1300    0.2257 C.3       1 UNK         0.0000 
     73 C73        -5.8720   -1.4140   -0.7653 C.3       1 UNK         0.0000 
     74 C74        -5.1347   -2.7162   -0.3440 C.3       1 UNK         0.0000 
     75 C75        -4.9265   -0.1851   -0.8670 C.3       1 UNK         0.0000 
     76 C76        -3.7035   -0.4393   -1.8271 C.3       1 UNK         0.0000 
     77 N77        -2.3892    0.1324   -1.4248 N.pl3     1 UNK         0.0000 
     78 O78        -2.1957   -0.0221   -0.1086 O.co2     1 UNK         0.0000 
     79 C79        -3.9810   -0.0232   -3.3020 C.2       1 UNK         0.0000 
     80 N80        -3.0709    0.1936   -4.1752 N.2       1 UNK         0.0000 
     81 C81        -1.7593    0.1142   -3.7451 C.2       1 UNK         0.0000 
     82 C82        -1.3852    0.1259   -2.4230 C.2       1 UNK         0.0000 
     83 O83        -0.1472    0.0693   -2.0565 O.co2     1 UNK         0.0000 
     84 C84        -0.7966    0.0575   -4.9352 C.3       1 UNK         0.0000 
     85 C85        -0.7946    1.3259   -5.8357 C.3       1 UNK         0.0000 
     86 C86        -0.5427    2.6092   -5.0113 C.3       1 UNK         0.0000 
     87 C87         0.2235    1.1979   -6.9865 C.3       1 UNK         0.0000 
     88 H88        -6.6051   -0.9960    1.2285 H         1 UNK         0.0000 
     89 H89        -7.7174   -1.9535    0.2608 H         1 UNK         0.0000 
     90 H90        -7.5516   -0.2238   -0.0302 H         1 UNK         0.0000 
     91 H91        -6.3062   -1.5634   -1.7566 H         1 UNK         0.0000 
     92 H92        -4.5360   -2.5381    0.5531 H         1 UNK         0.0000 
     93 H93        -5.8299   -3.5304   -0.1353 H         1 UNK         0.0000 
     94 H94        -4.4368   -3.0885   -1.0991 H         1 UNK         0.0000 
     95 H95        -5.4678    0.7159   -1.1527 H         1 UNK         0.0000 
     96 H96        -4.5929    0.0500    0.1443 H         1 UNK         0.0000 
     97 H97        -5.0014    0.0479   -3.6465 H         1 UNK         0.0000 
     98 H98         0.2214   -0.1337   -4.5758 H         1 UNK         0.0000 
     99 H99        -1.0667   -0.8254   -5.5193 H         1 UNK         0.0000 
    100 H100       -1.7969    1.4028   -6.2719 H         1 UNK         0.0000 
    101 H101        0.4309    2.5666   -4.5186 H         1 UNK         0.0000 
    102 H102       -1.2898    2.7160   -4.2177 H         1 UNK         0.0000 
    103 H103       -0.5895    3.5080   -5.6252 H         1 UNK         0.0000 
    104 H104        0.1648    2.0560   -7.6538 H         1 UNK         0.0000 
    105 H105        1.2401    1.1413   -6.5949 H         1 UNK         0.0000 
    106 H106        0.0385    0.2974   -7.5723 H         1 UNK         0.0000 
    107 H107        1.7816    3.5290   -1.5781 H         1 UNK         0.0000 
    108 H108       -1.3980   -3.4686    1.8166 H         1 UNK         0.0000 
    109 H109       -3.4632   -1.4996   -1.8648 H         1 UNK         0.0000 
@<TRIPOS>BOND
     1    1    8 nc   
     2    1   13 nc   
     3    1   43 nc   
     4    1   48 nc   
     5    1   78 nc   
     6    1   83 nc   
     7    2   18 1    
     8    2   20 1    
     9    2    3 1    
    10    2   19 1    
    11    3    5 1    
    12    3    4 1    
    13    3   21 1    
    14    4   22 1    
    15    4   23 1    
    16    4   24 1    
    17    5   26 1    
    18    5   25 1    
    19    5    6 1    
    20    6    7 1    
    21    6    9 1    
    22    6  107 1    
    23    7   12 1    
    24    7    8 1    
    25    9   10 2    
    26    9   27 1    
    27   10   11 1    
    28   11   14 1    
    29   11   12 2    
    30   12   13 1    
    31   14   15 1    
    32   14   28 1    
    33   14   29 1    
    34   15   16 1    
    35   15   17 1    
    36   15   30 1    
    37   16   31 1    
    38   16   32 1    
    39   16   33 1    
    40   17   35 1    
    41   17   34 1    
    42   17   36 1    
    43   37   54 1    
    44   37   55 1    
    45   37   38 1    
    46   37   53 1    
    47   38   56 1    
    48   38   39 1    
    49   38   40 1    
    50   39   58 1    
    51   39   59 1    
    52   39   57 1    
    53   40   60 1    
    54   40   41 1    
    55   40   61 1    
    56   41   44 1    
    57   41   42 1    
    58   41  108 1    
    59   42   47 1    
    60   42   43 1    
    61   44   62 1    
    62   44   45 2    
    63   45   46 1    
    64   46   49 1    
    65   46   47 2    
    66   47   48 1    
    67   49   64 1    
    68   49   50 1    
    69   49   63 1    
    70   50   65 1    
    71   50   52 1    
    72   50   51 1    
    73   51   68 1    
    74   51   66 1    
    75   51   67 1    
    76   52   69 1    
    77   52   71 1    
    78   52   70 1    
    79   72   88 1    
    80   72   73 1    
    81   72   89 1    
    82   72   90 1    
    83   73   75 1    
    84   73   74 1    
    85   73   91 1    
    86   74   92 1    
    87   74   93 1    
    88   74   94 1    
    89   75   96 1    
    90   75   76 1    
    91   75   95 1    
    92   76   77 1    
    93   76   79 1    
    94   76  109 1    
    95   77   78 1    
    96   77   82 1    
    97   79   80 2    
    98   79   97 1    
    99   80   81 1    
   100   81   82 2    
   101   81   84 1    
   102   82   83 1    
   103   84   98 1    
   104   84   85 1    
   105   84   99 1    
   106   85   86 1    
   107   85   87 1    
   108   85  100 1    
   109   86  101 1    
   110   86  102 1    
   111   86  103 1    
   112   87  105 1    
   113   87  104 1    
   114   87  106 1    
@<TRIPOS>SUBSTRUCTURE
     1 UNK         1 GROUP             0       ****    0 ROOT    
