@<TRIPOS>MOLECULE
031_c1
115   121    1
SMALL
USER_CHARGES


@<TRIPOS>ATOM
      1 Fe1         0.5140    0.4204    4.8475 Fe        1 UNK         0.0000 
      2 C2          2.8092    5.2499    4.8453 C.ar      1 UNK         0.0000 
      3 C3          2.8225    4.9489    6.2200 C.ar      1 UNK         0.0000 
      4 C4          2.4729    3.6687    6.6602 C.ar      1 UNK         0.0000 
      5 C5          2.1099    2.7273    5.7003 C.ar      1 UNK         0.0000 
      6 O6          1.7475    1.4597    5.8993 O.co2     1 UNK         0.0000 
      7 C7          2.0835    2.9898    4.4097 C.ar      1 UNK         0.0000 
      8 O8          1.6811    1.8625    3.8022 O.co2     1 UNK         0.0000 
      9 C9          2.4390    4.2659    3.8872 C.ar      1 UNK         0.0000 
     10 C10         2.4306    4.5573    2.4160 C.2       1 UNK         0.0000 
     11 O11         2.1094    3.6588    1.6535 O.2       1 UNK         0.0000 
     12 N12         2.7669    5.7837    1.8973 N.am      1 UNK         0.0000 
     13 C13         2.7547    6.0461    0.4668 C.3       1 UNK         0.0000 
     14 C14         1.7127    7.1275    0.1303 C.3       1 UNK         0.0000 
     15 C15         1.3684    7.2009   -1.3773 C.3       1 UNK         0.0000 
     16 C16         0.6187    5.9221   -1.7987 C.3       1 UNK         0.0000 
     17 C17         0.0519    5.8718   -3.2321 C.3       1 UNK         0.0000 
     18 H18        -0.5624    6.7873   -3.3999 H         1 UNK         0.0000 
     19 N19         1.1221    5.8476   -4.2386 N.4       1 UNK         0.0000 
     20 H20         0.7039    5.8205   -5.1972 H         1 UNK         0.0000 
     21 H21         1.7438    5.0184   -4.1071 H         1 UNK         0.0000 
     22 H22         1.6968    6.7190   -4.1690 H         1 UNK         0.0000 
     23 C23        -0.9182    4.6487   -3.3659 C.3       1 UNK         0.0000 
     24 H24        -1.3110    4.6135   -4.4110 H         1 UNK         0.0000 
     25 O25        -2.0021    4.8468   -2.4897 O.3       1 UNK         0.0000 
     26 C26        -0.2900    3.2483   -3.0719 C.3       1 UNK         0.0000 
     27 C27        -1.3715    2.1883   -2.9674 C.2       1 UNK         0.0000 
     28 O28        -2.1350    2.0537   -3.9153 O.2       1 UNK         0.0000 
     29 N29        -1.5203    1.4219   -1.8324 N.am      1 UNK         0.0000 
     30 C30        -2.6702    0.5386   -1.6279 C.3       1 UNK         0.0000 
     31 H31        -3.4133    0.7883   -2.4195 H         1 UNK         0.0000 
     32 C32        -3.4962    0.8730   -0.3486 C.3       1 UNK         0.0000 
     33 O33        -3.0194    0.5791    0.9488 O.3       1 UNK         0.0000 
     34 C34        -3.8004    0.9787    2.0237 C.2       1 UNK         0.0000 
     35 O35        -4.7645    1.7048    1.7995 O.2       1 UNK         0.0000 
     36 C36        -3.6246    0.5682    3.5054 C.3       1 UNK         0.0000 
     37 H37        -4.4666    1.1217    3.9891 H         1 UNK         0.0000 
     38 C38        -2.4931    1.2022    4.3762 C.3       1 UNK         0.0000 
     39 H39        -2.6219    2.3097    4.4235 H         1 UNK         0.0000 
     40 O40        -1.2325    0.9084    3.9433 O.co2     1 UNK         0.0000 
     41 C41        -2.3466    0.6771    5.7235 C.2       1 UNK         0.0000 
     42 O42        -1.1039    0.1823    5.9378 O.co2     1 UNK         0.0000 
     43 O43        -3.2088    0.7129    6.5863 O.co2     1 UNK         0.0000 
     44 N44        -4.0116   -0.8094    3.8052 N.am      1 UNK         0.0000 
     45 C45        -3.2517   -1.9103    4.0766 C.2       1 UNK         0.0000 
     46 O46        -3.8286   -2.8723    4.5701 O.2       1 UNK         0.0000 
     47 C47        -1.7529   -2.0582    3.8553 C.3       1 UNK         0.0000 
     48 N48        -1.4997   -3.3749    3.3100 N.am      1 UNK         0.0000 
     49 C49        -0.3165   -4.0329    3.1278 C.2       1 UNK         0.0000 
     50 O50        -0.4367   -5.1988    2.8035 O.2       1 UNK         0.0000 
     51 C51         1.1401   -3.5766    3.3791 C.3       1 UNK         0.0000 
     52 H52         1.5434   -4.4308    3.9676 H         1 UNK         0.0000 
     53 C53         1.5583   -2.3587    4.2861 C.3       1 UNK         0.0000 
     54 H54         2.6728   -2.3023    4.3142 H         1 UNK         0.0000 
     55 O55         1.0165   -1.1001    3.9803 O.co2     1 UNK         0.0000 
     56 C56         1.2054   -2.1279    5.5778 C.2       1 UNK         0.0000 
     57 O57         0.9751   -0.7902    5.5221 O.co2     1 UNK         0.0000 
     58 O58         1.4978   -2.7648    6.5770 O.co2     1 UNK         0.0000 
     59 N59         1.9941   -3.5018    2.1660 N.am      1 UNK         0.0000 
     60 C60         2.1241   -4.2749    1.0338 C.2       1 UNK         0.0000 
     61 O61         3.1086   -4.0651    0.3353 O.2       1 UNK         0.0000 
     62 C62         1.1438   -5.3195    0.5033 C.3       1 UNK         0.0000 
     63 H63         0.9026   -6.0457    1.2937 H         1 UNK         0.0000 
     64 N64        -0.0397   -4.6511   -0.0438 N.am      1 UNK         0.0000 
     65 C65         0.0274   -3.6486   -0.9785 C.2       1 UNK         0.0000 
     66 O66         1.1066   -3.2313   -1.3737 O.2       1 UNK         0.0000 
     67 C67        -1.2157   -3.0529   -1.5802 C.3       1 UNK         0.0000 
     68 N68        -1.3869   -1.6350   -1.2707 N.am      1 UNK         0.0000 
     69 C69        -2.3811   -0.9328   -1.8842 C.2       1 UNK         0.0000 
     70 O70        -3.0770   -1.4963   -2.7216 O.2       1 UNK         0.0000 
     71 C71         1.7834   -6.2504   -0.5617 C.3       1 UNK         0.0000 
     72 C72         0.8432   -7.3978   -0.9968 C.3       1 UNK         0.0000 
     73 C73         1.6197   -8.4504   -1.8050 C.3       1 UNK         0.0000 
     74 N74         0.7817   -9.5707   -2.1905 N.pl3     1 UNK         0.0000 
     75 C75         1.3117  -10.7201   -2.8611 C.cat     1 UNK         0.0000 
     76 N76         2.7007  -10.8155   -3.1650 N.pl3     1 UNK         0.0000 
     77 N77         0.5266  -11.6902   -3.1862 N.pl3     1 UNK         0.0000 
     78 H78        -0.4814  -11.6521   -2.9758 H         1 UNK         0.0000 
     79 H79         0.8918  -12.5280   -3.6642 H         1 UNK         0.0000 
     80 H80         3.0936    6.2513    4.5689 H         1 UNK         0.0000 
     81 H81         3.1064    5.7073    6.9382 H         1 UNK         0.0000 
     82 H82         2.4818    3.4200    7.7134 H         1 UNK         0.0000 
     83 H83         3.0276    6.5695    2.5041 H         1 UNK         0.0000 
     84 H84         3.7597    6.3652    0.1186 H         1 UNK         0.0000 
     85 H85         2.5322    5.1126   -0.0671 H         1 UNK         0.0000 
     86 H86         2.0904    8.1074    0.4940 H         1 UNK         0.0000 
     87 H87         0.7668    6.9147    0.6787 H         1 UNK         0.0000 
     88 H88         0.6812    8.0626   -1.5252 H         1 UNK         0.0000 
     89 H89         2.2831    7.3695   -1.9809 H         1 UNK         0.0000 
     90 H90        -0.2345    5.8163   -1.0944 H         1 UNK         0.0000 
     91 H91         1.2849    5.0553   -1.6929 H         1 UNK         0.0000 
     92 H92        -2.6421    5.4522   -2.9493 H         1 UNK         0.0000 
     93 H93         0.2503    3.2441   -2.1083 H         1 UNK         0.0000 
     94 H94         0.4327    2.9943   -3.8771 H         1 UNK         0.0000 
     95 H95        -0.8330    1.5070   -1.0680 H         1 UNK         0.0000 
     96 H96        -4.4683    0.3419   -0.4652 H         1 UNK         0.0000 
     97 H97        -3.7031    1.9660   -0.4151 H         1 UNK         0.0000 
     98 H98        -5.0207   -0.9254    4.0038 H         1 UNK         0.0000 
     99 H99        -1.3472   -1.2895    3.1794 H         1 UNK         0.0000 
    100 H100       -1.3005   -2.0361    4.8601 H         1 UNK         0.0000 
    101 H101       -2.3327   -3.9398    3.0722 H         1 UNK         0.0000 
    102 H102        2.7508   -2.8013    2.2254 H         1 UNK         0.0000 
    103 H103       -0.9666   -4.9544    0.2888 H         1 UNK         0.0000 
    104 H104       -1.1221   -3.1873   -2.6827 H         1 UNK         0.0000 
    105 H105       -2.1199   -3.6020   -1.2431 H         1 UNK         0.0000 
    106 H106       -0.7564   -1.1609   -0.6065 H         1 UNK         0.0000 
    107 H107        2.6759   -6.7108   -0.0815 H         1 UNK         0.0000 
    108 H108        2.1225   -5.6889   -1.4585 H         1 UNK         0.0000 
    109 H109        0.4349   -7.9065   -0.0954 H         1 UNK         0.0000 
    110 H110       -0.0069   -6.9927   -1.5887 H         1 UNK         0.0000 
    111 H111        2.0535   -7.9845   -2.7158 H         1 UNK         0.0000 
    112 H112        2.4406   -8.8323   -1.1592 H         1 UNK         0.0000 
    113 H113       -0.2236   -9.5541   -1.9563 H         1 UNK         0.0000 
    114 H114        3.0779  -11.6529   -3.6321 H         1 UNK         0.0000 
    115 H115        3.3620  -10.0675   -2.9179 H         1 UNK         0.0000 
@<TRIPOS>BOND
     1    1    6 nc   
     2    1    8 nc   
     3    1   40 nc   
     4    1   42 nc   
     5    1   55 nc   
     6    1   57 nc   
     7    2    3 ar   
     8    2    9 ar   
     9    2   80 1    
    10    3    4 ar   
    11    3   81 1    
    12    4   82 1    
    13    4    5 ar   
    14    5    6 1    
    15    5    7 ar   
    16    7    8 1    
    17    7    9 ar   
    18    9   10 1    
    19   10   11 2    
    20   10   12 am   BACKBONE|DICT|INTERRES
    21   12   83 1    
    22   12   13 1    
    23   13   14 1    
    24   13   84 1    
    25   13   85 1    
    26   14   86 1    
    27   14   87 1    
    28   14   15 1    
    29   15   16 1    
    30   15   88 1    
    31   15   89 1    
    32   16   91 1    
    33   16   90 1    
    34   16   17 1    
    35   17   18 1    
    36   17   19 1    
    37   17   23 1    
    38   19   22 1    
    39   19   21 1    
    40   19   20 1    
    41   23   24 1    
    42   23   26 1    
    43   23   25 1    
    44   25   92 1    
    45   26   27 1    
    46   26   93 1    
    47   26   94 1    
    48   27   29 am   BACKBONE|DICT|INTERRES
    49   27   28 2    
    50   29   30 1    
    51   29   95 1    
    52   30   31 1    
    53   30   32 1    
    54   30   69 1    
    55   32   33 1    
    56   32   96 1    
    57   32   97 1    
    58   33   34 1    
    59   34   36 1    
    60   34   35 2    
    61   36   44 1    
    62   36   37 1    
    63   36   38 1    
    64   38   39 1    
    65   38   41 1    
    66   38   40 1    
    67   41   42 1    
    68   41   43 2    
    69   44   98 1    
    70   44   45 am   BACKBONE|DICT|INTERRES
    71   45   46 2    
    72   45   47 1    
    73   47  100 1    
    74   47   48 1    
    75   47   99 1    
    76   48   49 am   BACKBONE|DICT|INTERRES
    77   48  101 1    
    78   49   51 1    
    79   49   50 2    
    80   51   52 1    
    81   51   53 1    
    82   51   59 1    
    83   53   54 1    
    84   53   56 1    
    85   53   55 1    
    86   56   58 2    
    87   56   57 1    
    88   59  102 1    
    89   59   60 am   BACKBONE|DICT|INTERRES
    90   60   61 2    
    91   60   62 1    
    92   62   63 1    
    93   62   64 1    
    94   62   71 1    
    95   64  103 1    
    96   64   65 am   BACKBONE|DICT|INTERRES
    97   65   66 2    
    98   65   67 1    
    99   67   68 1    
   100   67  105 1    
   101   67  104 1    
   102   68  106 1    
   103   68   69 am   BACKBONE|DICT|INTERRES
   104   69   70 2    
   105   71  107 1    
   106   71   72 1    
   107   71  108 1    
   108   72  109 1    
   109   72   73 1    
   110   72  110 1    
   111   73  112 1    
   112   73   74 1    
   113   73  111 1    
   114   74  113 1    
   115   74   75 ar   
   116   75   76 ar   
   117   75   77 ar   
   118   76  115 1    
   119   76  114 1    
   120   77   78 1    
   121   77   79 1    
@<TRIPOS>SUBSTRUCTURE
     1 UNK         1 GROUP             0       ****    0 ROOT    
