@<TRIPOS>MOLECULE
105_c3
112   117    1
SMALL
USER_CHARGES


@<TRIPOS>ATOM
      1 Fe1         0.3017   -1.9275    2.3334 Fe        1 UNK         0.0000 
      2 O2          1.0594   -7.0800    5.3834 O.2       1 UNK         0.0000 
      3 C3          1.7902   -6.0992    5.3427 C.2       1 UNK         0.0000 
      4 C4          2.6531   -5.8750    4.0889 C.3       1 UNK         0.0000 
      5 C5          1.8590   -5.9308    2.7509 C.3       1 UNK         0.0000 
      6 C6          0.9582   -4.6948    2.5650 C.2       1 UNK         0.0000 
      7 O7          1.4192   -3.5565    2.4198 O.co2     1 UNK         0.0000 
      8 N8         -0.3890   -4.7433    2.6287 N.am      1 UNK         0.0000 
      9 O9         -1.0598   -3.6118    2.7653 O.co2     1 UNK         0.0000 
     10 C10        -1.2178   -5.9168    2.2980 C.3       1 UNK         0.0000 
     11 C11        -2.7395   -5.6402    2.0807 C.3       1 UNK         0.0000 
     12 C12        -3.5420   -6.7859    1.4440 C.3       1 UNK         0.0000 
     13 C13        -3.1812   -7.1077   -0.0235 C.3       1 UNK         0.0000 
     14 C14        -3.5166   -6.0038   -1.0495 C.3       1 UNK         0.0000 
     15 N15        -2.4574   -5.0156   -1.2909 N.am      1 UNK         0.0000 
     16 C16        -2.6589   -3.6925   -1.4228 C.2       1 UNK         0.0000 
     17 O17        -3.7112   -3.1353   -1.1259 O.2       1 UNK         0.0000 
     18 C18        -1.5534   -2.8897   -2.1299 C.3       1 UNK         0.0000 
     19 C19        -1.3055   -1.4267   -1.6726 C.3       1 UNK         0.0000 
     20 C20        -0.4188   -1.3123   -0.4268 C.2       1 UNK         0.0000 
     21 O21        -0.7737   -1.7190    0.6743 O.co2     1 UNK         0.0000 
     22 N22         0.8188   -0.7715   -0.3803 N.am      1 UNK         0.0000 
     23 O23         1.4591   -0.7684    0.7872 O.co2     1 UNK         0.0000 
     24 C24         1.4834   -0.0684   -1.4721 C.3       1 UNK         0.0000 
     25 C25         0.8761    1.3282   -1.6682 C.3       1 UNK         0.0000 
     26 C26         1.5294    2.1062   -2.8175 C.3       1 UNK         0.0000 
     27 C27         0.7426    3.3758   -3.1856 C.3       1 UNK         0.0000 
     28 C28         0.6951    4.4431   -2.0762 C.3       1 UNK         0.0000 
     29 N29        -0.1935    5.5459   -2.4345 N.am      1 UNK         0.0000 
     30 C30         0.0973    6.8254   -2.6882 C.2       1 UNK         0.0000 
     31 O31        -0.8043    7.5977   -2.9928 O.2       1 UNK         0.0000 
     32 C32         1.5378    7.3564   -2.5993 C.3       1 UNK         0.0000 
     33 C33         1.8078    8.2546   -1.3588 C.3       1 UNK         0.0000 
     34 C34         1.8638    7.4848   -0.0193 C.2       1 UNK         0.0000 
     35 O35         2.6493    6.5368    0.0573 O.2       1 UNK         0.0000 
     36 N36         1.0505    7.8196    1.0238 N.am      1 UNK         0.0000 
     37 O37         0.0196    8.7537    0.7611 O.3       1 UNK         0.0000 
     38 C38         0.8167    6.8858    2.1430 C.3       1 UNK         0.0000 
     39 C39        -0.2400    7.2985    3.1955 C.3       1 UNK         0.0000 
     40 C40        -0.3365    6.3074    4.3764 C.3       1 UNK         0.0000 
     41 C41        -0.9245    4.9237    4.0163 C.3       1 UNK         0.0000 
     42 C42        -0.9827    3.9870    5.2304 C.3       1 UNK         0.0000 
     43 N43        -1.7052    2.7518    4.9525 N.am      1 UNK         0.0000 
     44 C44        -1.9352    1.8133    5.8752 C.2       1 UNK         0.0000 
     45 O45        -1.5465    1.8999    7.0349 O.2       1 UNK         0.0000 
     46 C46        -2.7078    0.5709    5.4297 C.3       1 UNK         0.0000 
     47 C47        -1.9131   -0.7435    5.6244 C.3       1 UNK         0.0000 
     48 C48        -0.8070   -0.9209    4.5807 C.2       1 UNK         0.0000 
     49 O49        -1.0372   -0.8465    3.3642 O.co2     1 UNK         0.0000 
     50 N50         0.4711   -1.3132    4.8220 N.am      1 UNK         0.0000 
     51 O51         1.2099   -1.3856    3.7258 O.co2     1 UNK         0.0000 
     52 C52         0.8199   -2.3040    5.8687 C.3       1 UNK         0.0000 
     53 C53         2.3029   -2.8079    5.8604 C.3       1 UNK         0.0000 
     54 C54         2.6304   -4.0757    6.6713 C.3       1 UNK         0.0000 
     55 N55         1.8046   -5.2557    6.3852 N.am      1 UNK         0.0000 
     56 H56         3.3162   -5.0145    4.1371 H         1 UNK         0.0000 
     57 H57         3.3506   -6.7087    4.0978 H         1 UNK         0.0000 
     58 H58         2.5804   -5.9327    1.9333 H         1 UNK         0.0000 
     59 H59         1.3475   -6.8870    2.6316 H         1 UNK         0.0000 
     60 H60        -1.0858   -6.6901    3.0578 H         1 UNK         0.0000 
     61 H61        -0.8225   -6.3523    1.3794 H         1 UNK         0.0000 
     62 H62        -2.8841   -4.7453    1.4688 H         1 UNK         0.0000 
     63 H63        -3.1813   -5.3900    3.0502 H         1 UNK         0.0000 
     64 H64        -3.4136   -7.6771    2.0618 H         1 UNK         0.0000 
     65 H65        -4.6047   -6.5390    1.4941 H         1 UNK         0.0000 
     66 H66        -2.1430   -7.4246   -0.1109 H         1 UNK         0.0000 
     67 H67        -3.7640   -7.9879   -0.2897 H         1 UNK         0.0000 
     68 H68        -3.7286   -6.4767   -2.0075 H         1 UNK         0.0000 
     69 H69        -4.4630   -5.5295   -0.7748 H         1 UNK         0.0000 
     70 H70        -1.5372   -5.3723   -1.4836 H         1 UNK         0.0000 
     71 H71        -0.6248   -3.4414   -2.2734 H         1 UNK         0.0000 
     72 H72        -1.9703   -2.7994   -3.1337 H         1 UNK         0.0000 
     73 H73        -0.8054   -0.9115   -2.4882 H         1 UNK         0.0000 
     74 H74        -2.2331   -0.8740   -1.5341 H         1 UNK         0.0000 
     75 H75         2.5559    0.0310   -1.2788 H         1 UNK         0.0000 
     76 H76         1.4339   -0.6516   -2.3936 H         1 UNK         0.0000 
     77 H77        -0.1931    1.2302   -1.8712 H         1 UNK         0.0000 
     78 H78         0.9852    1.8793   -0.7317 H         1 UNK         0.0000 
     79 H79         1.5872    1.4624   -3.6975 H         1 UNK         0.0000 
     80 H80         2.5587    2.3542   -2.5481 H         1 UNK         0.0000 
     81 H81         1.1867    3.8087   -4.0823 H         1 UNK         0.0000 
     82 H82        -0.2737    3.0902   -3.4657 H         1 UNK         0.0000 
     83 H83         1.7097    4.7505   -1.8157 H         1 UNK         0.0000 
     84 H84         0.3145    4.0068   -1.1521 H         1 UNK         0.0000 
     85 H85        -1.1773    5.3455   -2.5101 H         1 UNK         0.0000 
     86 H86         1.6500    7.9856   -3.4807 H         1 UNK         0.0000 
     87 H87         2.3167    6.6123   -2.7528 H         1 UNK         0.0000 
     88 H88         1.1554    9.1282   -1.3626 H         1 UNK         0.0000 
     89 H89         2.7993    8.6897   -1.4844 H         1 UNK         0.0000 
     90 H90         0.2487    9.5158    1.3028 H         1 UNK         0.0000 
     91 H91         0.5012    5.9319    1.7146 H         1 UNK         0.0000 
     92 H92         1.7676    6.6809    2.6470 H         1 UNK         0.0000 
     93 H93        -0.0058    8.2886    3.5893 H         1 UNK         0.0000 
     94 H94        -1.2191    7.3773    2.7168 H         1 UNK         0.0000 
     95 H95        -0.9514    6.7563    5.1591 H         1 UNK         0.0000 
     96 H96         0.6557    6.1811    4.8170 H         1 UNK         0.0000 
     97 H97        -1.9247    5.0543    3.5961 H         1 UNK         0.0000 
     98 H98        -0.3155    4.4516    3.2427 H         1 UNK         0.0000 
     99 H99         0.0302    3.7693    5.5747 H         1 UNK         0.0000 
    100 H100       -1.4610    4.5031    6.0655 H         1 UNK         0.0000 
    101 H101       -2.0200    2.5911    4.0122 H         1 UNK         0.0000 
    102 H102       -3.1251    0.6447    4.4247 H         1 UNK         0.0000 
    103 H103       -3.5881    0.5433    6.0707 H         1 UNK         0.0000 
    104 H104       -2.6061   -1.5669    5.4462 H         1 UNK         0.0000 
    105 H105       -1.6017   -0.8878    6.6563 H         1 UNK         0.0000 
    106 H106        0.5457   -1.9406    6.8611 H         1 UNK         0.0000 
    107 H107        0.1825   -3.1789    5.7101 H         1 UNK         0.0000 
    108 H108        2.6368   -3.0088    4.8456 H         1 UNK         0.0000 
    109 H109        2.9420   -1.9947    6.2062 H         1 UNK         0.0000 
    110 H110        3.6862   -4.3341    6.5772 H         1 UNK         0.0000 
    111 H111        2.4535   -3.8521    7.7228 H         1 UNK         0.0000 
    112 H112        1.1795   -5.5499    7.1161 H         1 UNK         0.0000 
@<TRIPOS>BOND
     1    1    7 nc   
     2    1    9 nc   
     3    1   21 nc   
     4    1   23 nc   
     5    1   49 nc   
     6    1   51 nc   
     7    2    3 2    
     8    3   55 am   BACKBONE|DICT|INTERRES
     9    3    4 1    
    10    4   56 1    
    11    4    5 1    
    12    4   57 1    
    13    5    6 1    
    14    5   58 1    
    15    5   59 1    
    16    6    7 2    
    17    6    8 am   BACKBONE|DICT|INTERRES
    18    8    9 1    
    19    8   10 1    
    20   10   60 1    
    21   10   11 1    
    22   10   61 1    
    23   11   63 1    
    24   11   12 1    
    25   11   62 1    
    26   12   65 1    
    27   12   64 1    
    28   12   13 1    
    29   13   14 1    
    30   13   66 1    
    31   13   67 1    
    32   14   69 1    
    33   14   15 1    
    34   14   68 1    
    35   15   16 am   BACKBONE|DICT|INTERRES
    36   15   70 1    
    37   16   17 2    
    38   16   18 1    
    39   18   19 1    
    40   18   71 1    
    41   18   72 1    
    42   19   74 1    
    43   19   20 1    
    44   19   73 1    
    45   20   22 am   BACKBONE|DICT|INTERRES
    46   20   21 2    
    47   22   23 1    
    48   22   24 1    
    49   24   75 1    
    50   24   25 1    
    51   24   76 1    
    52   25   78 1    
    53   25   26 1    
    54   25   77 1    
    55   26   80 1    
    56   26   27 1    
    57   26   79 1    
    58   27   28 1    
    59   27   81 1    
    60   27   82 1    
    61   28   83 1    
    62   28   84 1    
    63   28   29 1    
    64   29   30 am   BACKBONE|DICT|INTERRES
    65   29   85 1    
    66   30   32 1    
    67   30   31 2    
    68   32   33 1    
    69   32   86 1    
    70   32   87 1    
    71   33   34 1    
    72   33   88 1    
    73   33   89 1    
    74   34   35 2    
    75   34   36 am   BACKBONE|DICT|INTERRES
    76   36   38 1    
    77   36   37 1    
    78   37   90 1    
    79   38   92 1    
    80   38   39 1    
    81   38   91 1    
    82   39   93 1    
    83   39   40 1    
    84   39   94 1    
    85   40   96 1    
    86   40   95 1    
    87   40   41 1    
    88   41   42 1    
    89   41   97 1    
    90   41   98 1    
    91   42   99 1    
    92   42  100 1    
    93   42   43 1    
    94   43   44 am   BACKBONE|DICT|INTERRES
    95   43  101 1    
    96   44   45 2    
    97   44   46 1    
    98   46   47 1    
    99   46  103 1    
   100   46  102 1    
   101   47  105 1    
   102   47   48 1    
   103   47  104 1    
   104   48   50 am   BACKBONE|DICT|INTERRES
   105   48   49 2    
   106   50   52 1    
   107   50   51 1    
   108   52  106 1    
   109   52   53 1    
   110   52  107 1    
   111   53  109 1    
   112   53   54 1    
   113   53  108 1    
   114   54  111 1    
   115   54   55 1    
   116   54  110 1    
   117   55  112 1    
@<TRIPOS>SUBSTRUCTURE
     1 UNK         1 GROUP             0       ****    0 ROOT    
