@<TRIPOS>MOLECULE
179_D2_c1
85   93    1
SMALL
USER_CHARGES


@<TRIPOS>ATOM
      1 Fe1         0.4896   -0.8771    0.6452 Fe        1 UNK         0.0000 
      2 O2         -1.4712   -0.3307    1.3685 O.co2     1 UNK         0.0000 
      3 N3         -1.6494    0.9846    1.3702 N.am      1 UNK         0.0000 
      4 C4         -0.4842    1.7062    1.4223 C.2       1 UNK         0.0000 
      5 O5          0.6001    1.1076    1.4340 O.co2     1 UNK         0.0000 
      6 C6         -0.5837    3.2263    1.0577 C.3       1 UNK         0.0000 
      7 H7         -0.0462    3.6633    1.8998 H         1 UNK         0.0000 
      8 C8         -2.0275    3.7785    1.1434 C.3       1 UNK         0.0000 
      9 C9         -3.0183    2.8353    0.4706 C.3       1 UNK         0.0000 
     10 C10        -3.0263    1.4868    1.1999 C.3       1 UNK         0.0000 
     11 N11         0.2379    3.5690   -0.1571 N.am      1 UNK         0.0000 
     12 C12         1.0314    4.8023   -0.2791 C.3       1 UNK         0.0000 
     13 C13         2.0959    4.9031    0.8400 C.3       1 UNK         0.0000 
     14 C14         0.0913    6.0170   -0.2102 C.3       1 UNK         0.0000 
     15 C15         0.4262    2.7158   -1.2012 C.2       1 UNK         0.0000 
     16 O16        -0.2891    1.7649   -1.5095 O.2       1 UNK         0.0000 
     17 C17         1.7846    3.0974   -1.8147 C.3       1 UNK         0.0000 
     18 H18         2.5922    2.8155   -1.1318 H         1 UNK         0.0000 
     19 N19         1.6086    4.6178   -1.6911 N.4       1 UNK         0.0000 
     20 H20         0.8636    4.8703   -2.3265 H         1 UNK         0.0000 
     21 C21         2.8330    5.4900   -2.0510 C.3       1 UNK         0.0000 
     22 C22         2.0532    2.4955   -3.2260 C.3       1 UNK         0.0000 
     23 C23         2.8442    1.1546   -3.2446 C.3       1 UNK         0.0000 
     24 C24         2.0246   -0.1613   -3.3764 C.3       1 UNK         0.0000 
     25 N25         1.2709   -0.6036   -2.1783 N.am      1 UNK         0.0000 
     26 O26         1.8250   -0.2723   -0.9977 O.co2     1 UNK         0.0000 
     27 C27         0.1551   -1.3864   -2.2413 C.2       1 UNK         0.0000 
     28 O28        -0.3110   -1.7545   -1.1500 O.co2     1 UNK         0.0000 
     29 C29        -0.5577   -1.7794   -3.5552 C.3       1 UNK         0.0000 
     30 C30        -0.5272   -3.2748   -3.9512 C.3       1 UNK         0.0000 
     31 N31        -1.1040   -4.2043   -2.9754 N.am      1 UNK         0.0000 
     32 C32        -1.0682   -5.5388   -3.1331 C.2       1 UNK         0.0000 
     33 O33        -0.4850   -6.0670   -4.0753 O.2       1 UNK         0.0000 
     34 C34        -1.7225   -6.4187   -2.0591 C.3       1 UNK         0.0000 
     35 N35        -1.2929   -5.9460   -0.7489 N.am      1 UNK         0.0000 
     36 C36        -2.0428   -5.2716    0.1266 C.2       1 UNK         0.0000 
     37 O37        -3.2302   -5.0359   -0.0866 O.2       1 UNK         0.0000 
     38 C38        -1.3543   -4.7054    1.4013 C.3       1 UNK         0.0000 
     39 H39        -1.8598   -5.1674    2.2566 H         1 UNK         0.0000 
     40 N40         0.0699   -4.9720    1.4672 N.2       1 UNK         0.0000 
     41 C41         0.6821   -3.8542    1.4381 C.2       1 UNK         0.0000 
     42 O42        -0.1292   -2.7452    1.2774 O.3       1 UNK         0.0000 
     43 C43        -1.4778   -3.1917    1.4325 C.3       1 UNK         0.0000 
     44 C44         2.1497   -3.6146    1.4828 C.ar      1 UNK         0.0000 
     45 C45         2.7286   -2.3445    1.7133 C.ar      1 UNK         0.0000 
     46 O46         2.0471   -1.3178    1.9752 O.co2     1 UNK         0.0000 
     47 C47         4.1130   -2.1816    1.6813 C.ar      1 UNK         0.0000 
     48 C48         4.9465   -3.2773    1.4823 C.ar      1 UNK         0.0000 
     49 C49         4.3967   -4.5435    1.2981 C.ar      1 UNK         0.0000 
     50 C50         3.0134   -4.7068    1.2892 C.ar      1 UNK         0.0000 
     51 H51        -2.1142    4.7688    0.6992 H         1 UNK         0.0000 
     52 H52        -2.3009    3.9001    2.1963 H         1 UNK         0.0000 
     53 H53        -2.7426    2.6700   -0.5714 H         1 UNK         0.0000 
     54 H54        -4.0244    3.2578    0.4563 H         1 UNK         0.0000 
     55 H55        -3.6192    0.7712    0.6277 H         1 UNK         0.0000 
     56 H56        -3.4880    1.5652    2.1852 H         1 UNK         0.0000 
     57 H57         2.7771    4.0514    0.8620 H         1 UNK         0.0000 
     58 H58         1.6487    4.9790    1.8324 H         1 UNK         0.0000 
     59 H59         2.7041    5.8020    0.7258 H         1 UNK         0.0000 
     60 H60        -0.7623    5.9109   -0.8834 H         1 UNK         0.0000 
     61 H61         0.6015    6.9425   -0.4765 H         1 UNK         0.0000 
     62 H62        -0.3061    6.1609    0.7969 H         1 UNK         0.0000 
     63 H63         3.6931    5.1669   -1.4628 H         1 UNK         0.0000 
     64 H64         3.0150    5.3748   -3.1205 H         1 UNK         0.0000 
     65 H65         2.5661    6.5261   -1.8324 H         1 UNK         0.0000 
     66 H66         1.1360    2.4052   -3.8092 H         1 UNK         0.0000 
     67 H67         2.6713    3.2055   -3.7745 H         1 UNK         0.0000 
     68 H68         3.5225    1.0766   -2.3945 H         1 UNK         0.0000 
     69 H69         3.5150    1.1825   -4.1033 H         1 UNK         0.0000 
     70 H70         2.7183   -0.9645   -3.6451 H         1 UNK         0.0000 
     71 H71         1.3836   -0.0606   -4.2548 H         1 UNK         0.0000 
     72 H72        -0.4203   -1.1258   -4.4124 H         1 UNK         0.0000 
     73 H73        -1.6022   -1.5765   -3.3195 H         1 UNK         0.0000 
     74 H74         0.5174   -3.5504   -4.1156 H         1 UNK         0.0000 
     75 H75        -0.9684   -3.4106   -4.9435 H         1 UNK         0.0000 
     76 H76        -1.6328   -3.8389   -2.1967 H         1 UNK         0.0000 
     77 H77        -2.8074   -6.3886   -2.1800 H         1 UNK         0.0000 
     78 H78        -1.4128   -7.4582   -2.1872 H         1 UNK         0.0000 
     79 H79        -0.3212   -6.0739   -0.5054 H         1 UNK         0.0000 
     80 H80        -2.1110   -2.7733    0.6477 H         1 UNK         0.0000 
     81 H81        -1.8894   -2.8512    2.3835 H         1 UNK         0.0000 
     82 H82         4.5549   -1.2070    1.8375 H         1 UNK         0.0000 
     83 H83         6.0192   -3.1472    1.5118 H         1 UNK         0.0000 
     84 H84         5.0348   -5.4023    1.1952 H         1 UNK         0.0000 
     85 H85         2.6102   -5.7005    1.1408 H         1 UNK         0.0000 
@<TRIPOS>BOND
     1    1    2 nc   
     2    1    5 nc   
     3    1   26 nc   
     4    1   28 nc   
     5    1   42 nc   
     6    1   46 nc   
     7    2    3 1    
     8    3    4 am   BACKBONE|DICT|INTERRES
     9    3   10 1    
    10    4    5 2    
    11    4    6 1    
    12    6    8 1    
    13    6    7 1    
    14    6   11 1    
    15    8   52 1    
    16    8    9 1    
    17    8   51 1    
    18    9   10 1    
    19    9   53 1    
    20    9   54 1    
    21   10   56 1    
    22   10   55 1    
    23   11   12 1    
    24   11   15 am   BACKBONE|DICT|INTERRES
    25   12   14 1    
    26   12   13 1    
    27   12   19 1    
    28   13   57 1    
    29   13   58 1    
    30   13   59 1    
    31   14   62 1    
    32   14   60 1    
    33   14   61 1    
    34   15   16 2    
    35   15   17 1    
    36   17   19 1    
    37   17   18 1    
    38   17   22 1    
    39   19   20 1    
    40   19   21 1    
    41   21   65 1    
    42   21   63 1    
    43   21   64 1    
    44   22   23 1    
    45   22   66 1    
    46   22   67 1    
    47   23   68 1    
    48   23   24 1    
    49   23   69 1    
    50   24   25 1    
    51   24   70 1    
    52   24   71 1    
    53   25   26 1    
    54   25   27 am   BACKBONE|DICT|INTERRES
    55   27   29 1    
    56   27   28 2    
    57   29   73 1    
    58   29   30 1    
    59   29   72 1    
    60   30   31 1    
    61   30   74 1    
    62   30   75 1    
    63   31   76 1    
    64   31   32 am   BACKBONE|DICT|INTERRES
    65   32   34 1    
    66   32   33 2    
    67   34   35 1    
    68   34   77 1    
    69   34   78 1    
    70   35   79 1    
    71   35   36 am   BACKBONE|DICT|INTERRES
    72   36   38 1    
    73   36   37 2    
    74   38   40 1    
    75   38   39 1    
    76   38   43 1    
    77   40   41 2    
    78   41   44 1    
    79   41   42 1    
    80   42   43 1    
    81   43   81 1    
    82   43   80 1    
    83   44   45 ar   
    84   44   50 ar   
    85   45   47 ar   
    86   45   46 1    
    87   47   82 1    
    88   47   48 ar   
    89   48   83 1    
    90   48   49 ar   
    91   49   50 ar   
    92   49   84 1    
    93   50   85 1    
@<TRIPOS>SUBSTRUCTURE
     1 UNK         1 GROUP             0       ****    0 ROOT    
