@<TRIPOS>MOLECULE
001_c1
46   51    1
SMALL
USER_CHARGES


@<TRIPOS>ATOM
      1 Fe1         0.0000    0.0000    0.0000 Fe        1 UNK         0.0000 
      2 O2          0.0000    2.0800    0.0000 O.co2     1 UNK         0.0000 
      3 C3          1.0680    2.9057    0.0483 C.2       1 UNK         0.0000 
      4 O4          0.8393    4.1057    0.0731 O.co2     1 UNK         0.0000 
      5 C5          2.5059    2.4258    0.0742 C.ar      1 UNK         0.0000 
      6 C6          2.9464    1.0567    0.0503 C.ar      1 UNK         0.0000 
      7 O7          2.0800    0.0138    0.0000 O.co2     1 UNK         0.0000 
      8 C8          4.3309    0.7665    0.0794 C.ar      1 UNK         0.0000 
      9 O9          4.7526   -0.5166    0.0570 O.3       1 UNK         0.0000 
     10 C10         5.2711    1.7981    0.1312 C.ar      1 UNK         0.0000 
     11 C11         4.8561    3.1212    0.1547 C.ar      1 UNK         0.0000 
     12 C12         3.4995    3.4314    0.1267 C.ar      1 UNK         0.0000 
     13 H13         5.6900   -0.7569    0.0753 H         1 UNK         0.0000 
     14 H14         6.3301    1.5727    0.1533 H         1 UNK         0.0000 
     15 H15         5.5912    3.9149    0.1949 H         1 UNK         0.0000 
     16 H16         3.2323    4.4805    0.1469 H         1 UNK         0.0000 
     17 O17         0.0000   -2.0800    0.0000 O.co2     1 UNK         0.0000 
     18 C18         0.0556   -2.8984    1.0739 C.2       1 UNK         0.0000 
     19 O19         0.0841   -4.0998    0.8521 O.co2     1 UNK         0.0000 
     20 C20         0.0847   -2.4117    2.5109 C.ar      1 UNK         0.0000 
     21 C21         0.0574   -1.0411    2.9481 C.ar      1 UNK         0.0000 
     22 O22         0.0000    0.0000    2.0800 O.co2     1 UNK         0.0000 
     23 C23         0.0905   -0.7467    4.3321 C.ar      1 UNK         0.0000 
     24 O24         0.0649    0.5373    4.7505 O.3       1 UNK         0.0000 
     25 C25         0.1494   -1.7754    5.2748 C.ar      1 UNK         0.0000 
     26 C26         0.1759   -3.0994    4.8637 C.ar      1 UNK         0.0000 
     27 C27         0.1443   -3.4136    3.5079 C.ar      1 UNK         0.0000 
     28 H28         0.0853    0.7805    5.6871 H         1 UNK         0.0000 
     29 H29         0.1743   -1.5467    6.3332 H         1 UNK         0.0000 
     30 H30         0.2214   -3.8908    5.6010 H         1 UNK         0.0000 
     31 H31         0.1671   -4.4636    3.2445 H         1 UNK         0.0000 
     32 O32        -2.0800    0.0000    0.0000 O.co2     1 UNK         0.0000 
     33 C33        -2.8986    0.0547   -1.0740 C.2       1 UNK         0.0000 
     34 O34        -4.0998    0.0825   -0.8522 O.co2     1 UNK         0.0000 
     35 C35        -2.4116    0.0835   -2.5109 C.ar      1 UNK         0.0000 
     36 C36        -1.0409    0.0565   -2.9483 C.ar      1 UNK         0.0000 
     37 O37         0.0000    0.0000   -2.0800 O.co2     1 UNK         0.0000 
     38 C38        -0.7468    0.0891   -4.3323 C.ar      1 UNK         0.0000 
     39 O39         0.5376    0.0638   -4.7505 O.3       1 UNK         0.0000 
     40 C40        -1.7752    0.1473   -5.2751 C.ar      1 UNK         0.0000 
     41 C41        -3.0994    0.1740   -4.8638 C.ar      1 UNK         0.0000 
     42 C42        -3.4136    0.1427   -3.5081 C.ar      1 UNK         0.0000 
     43 H43         0.7806    0.0843   -5.6872 H         1 UNK         0.0000 
     44 H44        -1.5467    0.1721   -6.3334 H         1 UNK         0.0000 
     45 H45        -3.8907    0.2192   -5.6011 H         1 UNK         0.0000 
     46 H46        -4.4635    0.1657   -3.2446 H         1 UNK         0.0000 
@<TRIPOS>BOND
     1    1    2 nc   
     2    1    7 nc   
     3    1   17 nc   
     4    1   22 nc   
     5    1   32 nc   
     6    1   37 nc   
     7    2    3 1    
     8    3    4 2    
     9    3    5 1    
    10    5   12 ar   
    11    5    6 ar   
    12    6    8 ar   
    13    6    7 1    
    14    8   10 ar   
    15    8    9 1    
    16    9   13 1    
    17   10   14 1    
    18   10   11 ar   
    19   11   15 1    
    20   11   12 ar   
    21   12   16 1    
    22   17   18 1    
    23   18   20 1    
    24   18   19 2    
    25   20   21 ar   
    26   20   27 ar   
    27   21   23 ar   
    28   21   22 1    
    29   23   24 1    
    30   23   25 ar   
    31   24   28 1    
    32   25   29 1    
    33   25   26 ar   
    34   26   30 1    
    35   26   27 ar   
    36   27   31 1    
    37   32   33 1    
    38   33   34 2    
    39   33   35 1    
    40   35   36 ar   
    41   35   42 ar   
    42   36   37 1    
    43   36   38 ar   
    44   38   39 1    
    45   38   40 ar   
    46   39   43 1    
    47   40   41 ar   
    48   40   44 1    
    49   41   42 ar   
    50   41   45 1    
    51   42   46 1    
@<TRIPOS>SUBSTRUCTURE
     1 UNK         1 GROUP             0       ****    0 ROOT    
@<TRIPOS>MOLECULE
001_c2
46   51    1
SMALL
USER_CHARGES


@<TRIPOS>ATOM
      1 Fe1         0.0000    0.0000    0.0000 Fe        1 UNK         0.0000 
      2 O2         -0.6641    4.8415   -0.0010 O.2       1 UNK         0.0000 
      3 C3          0.6659    5.0344   -0.0007 C.2       1 UNK         0.0000 
      4 O4          1.0687    6.1875   -0.0006 O.3       1 UNK         0.0000 
      5 C5          1.6517    3.8986   -0.0002 C.ar      1 UNK         0.0000 
      6 C6          1.3025    2.5090   -0.0001 C.ar      1 UNK         0.0000 
      7 O7          0.0000    2.0800    0.0000 O.co2     1 UNK         0.0000 
      8 C8          2.3497    1.5209    0.0003 C.ar      1 UNK         0.0000 
      9 O9          2.0726    0.1753    0.0000 O.co2     1 UNK         0.0000 
     10 C10         3.6871    1.9261    0.0004 C.ar      1 UNK         0.0000 
     11 C11         4.0175    3.2735    0.0003 C.ar      1 UNK         0.0000 
     12 C12         3.0200    4.2427    0.0000 C.ar      1 UNK         0.0000 
     13 H13         4.4797    1.1885    0.0005 H         1 UNK         0.0000 
     14 H14         5.0580    3.5715    0.0003 H         1 UNK         0.0000 
     15 H15         3.3332    5.2796   -0.0002 H         1 UNK         0.0000 
     16 O16        -0.0483   -4.8530   -0.5887 O.2       1 UNK         0.0000 
     17 C17        -0.0768   -5.0107    0.7455 C.2       1 UNK         0.0000 
     18 O18        -0.1093   -6.1537    1.1765 O.3       1 UNK         0.0000 
     19 C19        -0.0707   -3.8504    1.7033 C.ar      1 UNK         0.0000 
     20 C20        -0.0335   -2.4688    1.3216 C.ar      1 UNK         0.0000 
     21 O21         0.0000   -2.0800    0.0000 O.co2     1 UNK         0.0000 
     22 C22        -0.0328   -1.4552    2.3588 C.ar      1 UNK         0.0000 
     23 O23         0.0000   -0.1061    2.0773 O.co2     1 UNK         0.0000 
     24 C24        -0.0677   -1.8395    3.7018 C.ar      1 UNK         0.0000 
     25 C25        -0.1032   -3.1784    4.0561 C.ar      1 UNK         0.0000 
     26 C26        -0.1047   -4.1658    3.0779 C.ar      1 UNK         0.0000 
     27 H27        -0.0680   -1.0888    4.4825 H         1 UNK         0.0000 
     28 H28        -0.1304   -3.4559    5.1022 H         1 UNK         0.0000 
     29 H29        -0.1333   -5.1950    3.4132 H         1 UNK         0.0000 
     30 O30        -4.8607    0.0107    0.5326 O.3       1 UNK         0.0000 
     31 C31        -4.9932    0.0194   -0.8043 C.2       1 UNK         0.0000 
     32 O32        -6.1282    0.0286   -1.2566 O.2       1 UNK         0.0000 
     33 C33        -3.8152    0.0181   -1.7412 C.ar      1 UNK         0.0000 
     34 C34        -2.4390    0.0086   -1.3353 C.ar      1 UNK         0.0000 
     35 O35        -2.0800    0.0000    0.0000 O.co2     1 UNK         0.0000 
     36 C36        -1.4060    0.0087   -2.3650 C.ar      1 UNK         0.0000 
     37 O37        -0.0534    0.0000   -2.0793 O.co2     1 UNK         0.0000 
     38 C38        -1.7761    0.0180   -3.7123 C.ar      1 UNK         0.0000 
     39 C39        -3.1096    0.0272   -4.0846 C.ar      1 UNK         0.0000 
     40 C40        -4.1096    0.0273   -3.1212 C.ar      1 UNK         0.0000 
     41 H41        -1.0166    0.0181   -4.4843 H         1 UNK         0.0000 
     42 H42        -3.3727    0.0344   -5.1344 H         1 UNK         0.0000 
     43 H43        -5.1338    0.0347   -3.4723 H         1 UNK         0.0000 
     44 H44         2.0287    6.1916   -0.0004 H         1 UNK         0.0000 
     45 H45        -0.1270   -6.1339    2.1361 H         1 UNK         0.0000 
     46 H46        -3.9286    0.0040    0.7622 H         1 UNK         0.0000 
@<TRIPOS>BOND
     1    1    7 nc   
     2    1    9 nc   
     3    1   21 nc   
     4    1   23 nc   
     5    1   35 nc   
     6    1   37 nc   
     7    2    3 2    
     8    3    4 1    
     9    3    5 1    
    10    4   44 1    
    11    5    6 ar   
    12    5   12 ar   
    13    6    7 1    
    14    6    8 ar   
    15    8   10 ar   
    16    8    9 1    
    17   10   13 1    
    18   10   11 ar   
    19   11   12 ar   
    20   11   14 1    
    21   12   15 1    
    22   16   17 2    
    23   17   18 1    
    24   17   19 1    
    25   18   45 1    
    26   19   26 ar   
    27   19   20 ar   
    28   20   22 ar   
    29   20   21 1    
    30   22   24 ar   
    31   22   23 1    
    32   24   25 ar   
    33   24   27 1    
    34   25   28 1    
    35   25   26 ar   
    36   26   29 1    
    37   30   31 1    
    38   30   46 1    
    39   31   32 2    
    40   31   33 1    
    41   33   34 ar   
    42   33   40 ar   
    43   34   35 1    
    44   34   36 ar   
    45   36   37 1    
    46   36   38 ar   
    47   38   39 ar   
    48   38   41 1    
    49   39   40 ar   
    50   39   42 1    
    51   40   43 1    
@<TRIPOS>SUBSTRUCTURE
     1 UNK         1 GROUP             0       ****    0 ROOT    
@<TRIPOS>MOLECULE
002_c1
67   72    1
SMALL
USER_CHARGES


@<TRIPOS>ATOM
      1 Fe1         0.0000    0.0000    0.0000 Fe        1 UNK         0.0000 
      2 C2          4.0372    3.1879    0.0051 C.ar      1 UNK         0.0000 
      3 C3          3.0138    4.1232   -0.0002 C.ar      1 UNK         0.0000 
      4 C4          1.6950    3.7228   -0.0009 C.ar      1 UNK         0.0000 
      5 C5          1.3546    2.3717    0.0019 C.ar      1 UNK         0.0000 
      6 O6          0.0000    2.0800    0.0000 O.co2     1 UNK         0.0000 
      7 C7          2.4145    1.3527    0.0053 C.ar      1 UNK         0.0000 
      8 O8          2.0800   -0.0000    0.0000 O.co2     1 UNK         0.0000 
      9 C9          3.7916    1.7910    0.0084 C.ar      1 UNK         0.0000 
     10 C10         4.9771    0.8341    0.0218 C.2       1 UNK         0.0000 
     11 O11         4.7797   -0.3655    0.0947 O.2       1 UNK         0.0000 
     12 N12         6.2768    1.2633   -0.0423 N.am      1 UNK         0.0000 
     13 C13         7.4157    0.3577   -0.0266 C.3       1 UNK         0.0000 
     14 C14         8.2123    0.5165   -1.2872 C.2       1 UNK         0.0000 
     15 O15         8.3934   -0.5350   -2.1089 O.2       1 UNK         0.0000 
     16 O16         8.7038    1.5970   -1.5721 O.3       1 UNK         0.0000 
     17 H17         5.0217    3.6154    0.0119 H         1 UNK         0.0000 
     18 H18         3.2481    5.1807   -0.0010 H         1 UNK         0.0000 
     19 H19         0.9200    4.4800   -0.0039 H         1 UNK         0.0000 
     20 H20         6.5151    2.2569   -0.1077 H         1 UNK         0.0000 
     21 H21         8.0577    0.5973    0.8471 H         1 UNK         0.0000 
     22 H22         7.1051   -0.7049    0.0670 H         1 UNK         0.0000 
     23 C23         0.0351   -3.1793    4.0437 C.ar      1 UNK         0.0000 
     24 C24         0.0268   -4.1169    3.0223 C.ar      1 UNK         0.0000 
     25 C25         0.0161   -3.7205    1.7023 C.ar      1 UNK         0.0000 
     26 C26         0.0116   -2.3695    1.3570 C.ar      1 UNK         0.0000 
     27 O27         0.0000   -2.0800    0.0000 O.co2     1 UNK         0.0000 
     28 C28         0.0177   -1.3504    2.4160 C.ar      1 UNK         0.0000 
     29 O29         0.0000    0.0000    2.0800 O.co2     1 UNK         0.0000 
     30 C30         0.0317   -1.7840    3.7946 C.ar      1 UNK         0.0000 
     31 C31         0.0560   -0.8266    4.9811 C.2       1 UNK         0.0000 
     32 O32         0.1881    0.3689    4.7858 O.2       1 UNK         0.0000 
     33 N33        -0.0566   -1.2543    6.2790 N.am      1 UNK         0.0000 
     34 C34        -0.0239   -0.3566    7.4236 C.3       1 UNK         0.0000 
     35 C35        -1.3028   -0.4684    8.2000 C.2       1 UNK         0.0000 
     36 O36        -2.0817    0.6153    8.3793 O.2       1 UNK         0.0000 
     37 O37        -1.6395   -1.5396    8.6794 O.3       1 UNK         0.0000 
     38 H38         0.0556   -3.6033    5.0300 H         1 UNK         0.0000 
     39 H39         0.0322   -5.1731    3.2605 H         1 UNK         0.0000 
     40 H40         0.0113   -4.4792    0.9292 H         1 UNK         0.0000 
     41 H41        -0.1764   -2.2447    6.5111 H         1 UNK         0.0000 
     42 H42         0.8263   -0.6380    8.0804 H         1 UNK         0.0000 
     43 H43         0.1208    0.7026    7.1215 H         1 UNK         0.0000 
     44 C44        -3.1777    0.0717   -4.0434 C.ar      1 UNK         0.0000 
     45 C45        -4.1164    0.0591   -3.0229 C.ar      1 UNK         0.0000 
     46 C46        -3.7204    0.0371   -1.7018 C.ar      1 UNK         0.0000 
     47 C47        -2.3699    0.0239   -1.3560 C.ar      1 UNK         0.0000 
     48 O48        -2.0800    0.0000    0.0000 O.co2     1 UNK         0.0000 
     49 C49        -1.3507    0.0325   -2.4139 C.ar      1 UNK         0.0000 
     50 O50         0.0000    0.0000   -2.0800 O.co2     1 UNK         0.0000 
     51 C51        -1.7836    0.0603   -3.7916 C.ar      1 UNK         0.0000 
     52 C52        -0.8258    0.0979   -4.9748 C.2       1 UNK         0.0000 
     53 O53         0.3618    0.2912   -4.7805 O.2       1 UNK         0.0000 
     54 N54        -1.2474   -0.0653   -6.2690 N.am      1 UNK         0.0000 
     55 C55        -0.3534   -0.0175   -7.4153 C.3       1 UNK         0.0000 
     56 C56        -0.4039   -1.3188   -8.1602 C.2       1 UNK         0.0000 
     57 O57         0.7161   -2.0487   -8.3226 O.3       1 UNK         0.0000 
     58 O58        -1.4578   -1.7185   -8.6293 O.2       1 UNK         0.0000 
     59 H59        -3.5966    0.1072   -5.0320 H         1 UNK         0.0000 
     60 H60        -5.1723    0.0726   -3.2621 H         1 UNK         0.0000 
     61 H61        -4.4801    0.0299   -0.9298 H         1 UNK         0.0000 
     62 H62        -2.2313   -0.2429   -6.4941 H         1 UNK         0.0000 
     63 H63        -0.6763    0.8018   -8.0927 H         1 UNK         0.0000 
     64 H64         0.6973    0.1861   -7.1182 H         1 UNK         0.0000 
     65 H65         9.1768    1.5244   -2.4043 H         1 UNK         0.0000 
     66 H66        -2.4753   -1.4359    9.1402 H         1 UNK         0.0000 
     67 H67         0.5105   -2.8453   -8.8174 H         1 UNK         0.0000 
@<TRIPOS>BOND
     1    1    6 nc   
     2    1    8 nc   
     3    1   27 nc   
     4    1   29 nc   
     5    1   48 nc   
     6    1   50 nc   
     7    2    9 ar   
     8    2   17 1    
     9    2    3 ar   
    10    3    4 ar   
    11    3   18 1    
    12    4    5 ar   
    13    4   19 1    
    14    5    7 ar   
    15    5    6 1    
    16    7    9 ar   
    17    7    8 1    
    18    9   10 1    
    19   10   11 2    
    20   10   12 am   BACKBONE|DICT|INTERRES
    21   12   13 1    
    22   12   20 1    
    23   13   22 1    
    24   13   21 1    
    25   13   14 1    
    26   14   15 2    
    27   14   16 1    
    28   16   65 1    
    29   23   38 1    
    30   23   24 ar   
    31   23   30 ar   
    32   24   39 1    
    33   24   25 ar   
    34   25   26 ar   
    35   25   40 1    
    36   26   28 ar   
    37   26   27 1    
    38   28   30 ar   
    39   28   29 1    
    40   30   31 1    
    41   31   33 am   BACKBONE|DICT|INTERRES
    42   31   32 2    
    43   33   41 1    
    44   33   34 1    
    45   34   42 1    
    46   34   35 1    
    47   34   43 1    
    48   35   36 2    
    49   35   37 1    
    50   37   66 1    
    51   44   51 ar   
    52   44   45 ar   
    53   44   59 1    
    54   45   46 ar   
    55   45   60 1    
    56   46   47 ar   
    57   46   61 1    
    58   47   48 1    
    59   47   49 ar   
    60   49   50 1    
    61   49   51 ar   
    62   51   52 1    
    63   52   53 2    
    64   52   54 am   BACKBONE|DICT|INTERRES
    65   54   55 1    
    66   54   62 1    
    67   55   64 1    
    68   55   56 1    
    69   55   63 1    
    70   56   57 1    
    71   56   58 2    
    72   57   67 1    
@<TRIPOS>SUBSTRUCTURE
     1 UNK         1 GROUP             0       ****    0 ROOT    
@<TRIPOS>MOLECULE
002_c2
70   75    1
SMALL
USER_CHARGES


@<TRIPOS>ATOM
      1 Fe1         0.0000    0.0000    0.0000 Fe        1 UNK         0.0000 
      2 C2          3.3553    3.6484    0.1237 C.ar      1 UNK         0.0000 
      3 C3          2.9665    4.9837    0.1904 C.ar      1 UNK         0.0000 
      4 C4          1.6317    5.3284    0.1942 C.ar      1 UNK         0.0000 
      5 C5          0.6610    4.3377    0.1320 C.ar      1 UNK         0.0000 
      6 O6         -0.6435    4.6933    0.1358 O.3       1 UNK         0.0000 
      7 C7          1.0242    2.9695    0.0633 C.ar      1 UNK         0.0000 
      8 O8          0.0000    2.0800    0.0000 O.co2     1 UNK         0.0000 
      9 C9          2.4271    2.5713    0.0572 C.ar      1 UNK         0.0000 
     10 C10         2.9068    1.0882   -0.0146 C.2       1 UNK         0.0000 
     11 O11         2.0711    0.1923    0.0000 O.co2     1 UNK         0.0000 
     12 N12         4.2031    0.6318   -0.1009 N.am      1 UNK         0.0000 
     13 C13         5.4410    1.3843   -0.1453 C.3       1 UNK         0.0000 
     14 C14         6.6265    0.4658   -0.2683 C.2       1 UNK         0.0000 
     15 O15         6.8735   -0.4475    0.6903 O.3       1 UNK         0.0000 
     16 O16         7.3734    0.5483   -1.2302 O.2       1 UNK         0.0000 
     17 H17         4.4072    3.5399    0.1340 H         1 UNK         0.0000 
     18 H18         3.7159    5.7636    0.2406 H         1 UNK         0.0000 
     19 H19         1.3492    6.3727    0.2468 H         1 UNK         0.0000 
     20 H20        -0.9341    5.6157    0.1814 H         1 UNK         0.0000 
     21 H21         4.3083   -0.3962   -0.1507 H         1 UNK         0.0000 
     22 H22         5.5762    1.9416    0.8050 H         1 UNK         0.0000 
     23 H23         5.4323    2.0566   -1.0314 H         1 UNK         0.0000 
     24 C24         0.0453   -3.5856    3.3894 C.ar      1 UNK         0.0000 
     25 C25         0.0948   -4.9279    3.0244 C.ar      1 UNK         0.0000 
     26 C26         0.1129   -5.2960    1.6970 C.ar      1 UNK         0.0000 
     27 C27         0.0822   -4.3220    0.7087 C.ar      1 UNK         0.0000 
     28 O28         0.1002   -4.7023   -0.5884 O.3       1 UNK         0.0000 
     29 C29         0.0319   -2.9461    1.0463 C.ar      1 UNK         0.0000 
     30 O30         0.0000   -2.0800    0.0000 O.co2     1 UNK         0.0000 
     31 C31         0.0110   -2.5214    2.4450 C.ar      1 UNK         0.0000 
     32 C32        -0.0429   -1.0290    2.9138 C.2       1 UNK         0.0000 
     33 O33         0.0000   -0.1356    2.0756 O.co2     1 UNK         0.0000 
     34 N34        -0.1429   -0.5615    4.2058 N.am      1 UNK         0.0000 
     35 C35        -0.2203   -1.3004    5.4506 C.3       1 UNK         0.0000 
     36 C36        -0.3475   -0.3684    6.6248 C.2       1 UNK         0.0000 
     37 O37         0.6219    0.5317    6.8789 O.2       1 UNK         0.0000 
     38 O38        -1.3224   -0.4279    7.3569 O.3       1 UNK         0.0000 
     39 H39         0.0418   -3.4629    4.4391 H         1 UNK         0.0000 
     40 H40         0.1201   -5.6956    3.7880 H         1 UNK         0.0000 
     41 H41         0.1513   -6.3461    1.4340 H         1 UNK         0.0000 
     42 H42         0.1345   -5.6304   -0.8617 H         1 UNK         0.0000 
     43 H43        -0.1776    0.4681    4.3023 H         1 UNK         0.0000 
     44 H44         0.7189   -1.8709    5.6078 H         1 UNK         0.0000 
     45 H45        -1.1171   -1.9580    5.4341 H         1 UNK         0.0000 
     46 C46        -3.5263    0.2069   -3.4135 C.ar      1 UNK         0.0000 
     47 C47        -4.8711    0.2914   -3.0663 C.ar      1 UNK         0.0000 
     48 C48        -5.2589    0.2795   -1.7451 C.ar      1 UNK         0.0000 
     49 C49        -4.3023    0.1830   -0.7447 C.ar      1 UNK         0.0000 
     50 O50        -4.7031    0.1725    0.5464 O.3       1 UNK         0.0000 
     51 C51        -2.9232    0.0954   -1.0625 C.ar      1 UNK         0.0000 
     52 O52        -2.0800    0.0000    0.0000 O.co2     1 UNK         0.0000 
     53 C53        -2.4763    0.1048   -2.4577 C.ar      1 UNK         0.0000 
     54 C54        -0.9801    0.0147   -2.9198 C.2       1 UNK         0.0000 
     55 O55        -0.0887    0.0000   -2.0781 O.co2     1 UNK         0.0000 
     56 N56        -0.5070   -0.0596   -4.2121 N.am      1 UNK         0.0000 
     57 C57        -1.2362   -0.0727   -5.4653 C.3       1 UNK         0.0000 
     58 C58        -0.2976   -0.1954   -6.6351 C.2       1 UNK         0.0000 
     59 O59         0.6369    0.7502   -6.8514 O.3       1 UNK         0.0000 
     60 O60        -0.3831   -1.1448   -7.3976 O.2       1 UNK         0.0000 
     61 H61        -3.3908    0.2336   -4.4606 H         1 UNK         0.0000 
     62 H62        -5.6259    0.3681   -3.8396 H         1 UNK         0.0000 
     63 H63        -6.3111    0.3461   -1.4964 H         1 UNK         0.0000 
     64 H64        -5.6338    0.2303    0.8063 H         1 UNK         0.0000 
     65 H65         0.5216   -0.1261   -4.3029 H         1 UNK         0.0000 
     66 H66        -1.7723    0.8902   -5.5987 H         1 UNK         0.0000 
     67 H67        -1.9237   -0.9468   -5.4830 H         1 UNK         0.0000 
     68 H68         7.6598   -0.9482    0.4609 H         1 UNK         0.0000 
     69 H69        -1.2437    0.2320    8.0497 H         1 UNK         0.0000 
     70 H70         1.1483    0.5228   -7.6314 H         1 UNK         0.0000 
@<TRIPOS>BOND
     1    1    8 nc   
     2    1   11 nc   
     3    1   30 nc   
     4    1   33 nc   
     5    1   52 nc   
     6    1   55 nc   
     7    2   17 1    
     8    2    3 ar   
     9    2    9 ar   
    10    3    4 ar   
    11    3   18 1    
    12    4   19 1    
    13    4    5 ar   
    14    5    6 1    
    15    5    7 ar   
    16    6   20 1    
    17    7    8 1    
    18    7    9 ar   
    19    9   10 1    
    20   10   11 2    
    21   10   12 am   BACKBONE|DICT|INTERRES
    22   12   13 1    
    23   12   21 1    
    24   13   22 1    
    25   13   14 1    
    26   13   23 1    
    27   14   15 1    
    28   14   16 2    
    29   15   68 1    
    30   24   39 1    
    31   24   25 ar   
    32   24   31 ar   
    33   25   40 1    
    34   25   26 ar   
    35   26   27 ar   
    36   26   41 1    
    37   27   29 ar   
    38   27   28 1    
    39   28   42 1    
    40   29   31 ar   
    41   29   30 1    
    42   31   32 1    
    43   32   33 2    
    44   32   34 am   BACKBONE|DICT|INTERRES
    45   34   43 1    
    46   34   35 1    
    47   35   44 1    
    48   35   36 1    
    49   35   45 1    
    50   36   37 2    
    51   36   38 1    
    52   38   69 1    
    53   46   47 ar   
    54   46   53 ar   
    55   46   61 1    
    56   47   48 ar   
    57   47   62 1    
    58   48   63 1    
    59   48   49 ar   
    60   49   50 1    
    61   49   51 ar   
    62   50   64 1    
    63   51   52 1    
    64   51   53 ar   
    65   53   54 1    
    66   54   55 2    
    67   54   56 am   BACKBONE|DICT|INTERRES
    68   56   57 1    
    69   56   65 1    
    70   57   58 1    
    71   57   66 1    
    72   57   67 1    
    73   58   59 1    
    74   58   60 2    
    75   59   70 1    
@<TRIPOS>SUBSTRUCTURE
     1 UNK         1 GROUP             0       ****    0 ROOT    
@<TRIPOS>MOLECULE
003_c1
79   84    1
SMALL
USER_CHARGES


@<TRIPOS>ATOM
      1 Fe1         0.0000    0.0000    0.0000 Fe        1 UNK         0.0000 
      2 O2          0.2597    7.9036    2.2421 O.3       1 UNK         0.0000 
      3 C3          0.3693    8.5198    0.9878 C.3       1 UNK         0.0000 
      4 C4         -0.0371    7.5427   -0.1276 C.3       1 UNK         0.0000 
      5 H5          0.1076    8.0722   -1.0964 H         1 UNK         0.0000 
      6 C6         -1.5161    7.2238   -0.0014 C.2       1 UNK         0.0000 
      7 O7         -2.0116    6.6740    1.1260 O.3       1 UNK         0.0000 
      8 O8         -2.2790    7.5066   -0.9118 O.2       1 UNK         0.0000 
      9 N9          0.8792    6.3909   -0.1311 N.am      1 UNK         0.0000 
     10 C10         0.5568    5.0543   -0.0700 C.2       1 UNK         0.0000 
     11 O11        -0.6156    4.7409   -0.0192 O.2       1 UNK         0.0000 
     12 C12         1.6123    3.9497   -0.0758 C.ar      1 UNK         0.0000 
     13 C13         1.2877    2.5439   -0.0373 C.ar      1 UNK         0.0000 
     14 O14         0.0000    2.0800    0.0000 O.co2     1 UNK         0.0000 
     15 C15         2.3392    1.5623   -0.0388 C.ar      1 UNK         0.0000 
     16 O16         2.0690    0.2141    0.0000 O.co2     1 UNK         0.0000 
     17 C17         3.6700    1.9735   -0.0810 C.ar      1 UNK         0.0000 
     18 C18         3.9883    3.3199   -0.1197 C.ar      1 UNK         0.0000 
     19 C19         2.9889    4.2881   -0.1161 C.ar      1 UNK         0.0000 
     20 H20         0.5173    8.5906    2.9102 H         1 UNK         0.0000 
     21 H21        -0.2874    9.4186    0.9462 H         1 UNK         0.0000 
     22 H22         1.4237    8.8364    0.8235 H         1 UNK         0.0000 
     23 H23         1.8605    6.6702   -0.2120 H         1 UNK         0.0000 
     24 H24         4.4674    1.2411   -0.0838 H         1 UNK         0.0000 
     25 H25         5.0278    3.6213   -0.1517 H         1 UNK         0.0000 
     26 H26         3.3480    5.2998   -0.1441 H         1 UNK         0.0000 
     27 O27         2.5538   -7.7663    0.2746 O.3       1 UNK         0.0000 
     28 C28         1.3393   -8.4406    0.4630 C.3       1 UNK         0.0000 
     29 C29         0.1566   -7.5294    0.0959 C.3       1 UNK         0.0000 
     30 H30        -0.7755   -8.1022    0.3013 H         1 UNK         0.0000 
     31 C31         0.1913   -7.2393   -1.3942 C.2       1 UNK         0.0000 
     32 O32         1.2633   -6.6468   -1.9590 O.3       1 UNK         0.0000 
     33 O33        -0.7414   -7.5836   -2.1028 O.2       1 UNK         0.0000 
     34 N34         0.1411   -6.3586    0.9878 N.am      1 UNK         0.0000 
     35 C35         0.1174   -5.0289    0.6346 C.2       1 UNK         0.0000 
     36 O36         0.0948   -4.7433   -0.5453 O.2       1 UNK         0.0000 
     37 C37         0.1045   -3.8996    1.6648 C.ar      1 UNK         0.0000 
     38 C38         0.0500   -2.5015    1.3076 C.ar      1 UNK         0.0000 
     39 O39         0.0000   -2.0800    0.0000 O.co2     1 UNK         0.0000 
     40 C40         0.0474   -1.4931    2.3493 C.ar      1 UNK         0.0000 
     41 O41         0.0000   -0.1405    2.0753 O.co2     1 UNK         0.0000 
     42 C42         0.0956   -1.8845    3.6857 C.ar      1 UNK         0.0000 
     43 C43         0.1475   -3.2233    4.0279 C.ar      1 UNK         0.0000 
     44 C44         0.1530   -4.2091    3.0475 C.ar      1 UNK         0.0000 
     45 H45         3.2681   -8.4176    0.4984 H         1 UNK         0.0000 
     46 H46         1.3083   -9.3549   -0.1726 H         1 UNK         0.0000 
     47 H47         1.2461   -8.7407    1.5307 H         1 UNK         0.0000 
     48 H48         0.1231   -6.6191    1.9773 H         1 UNK         0.0000 
     49 H49         0.0940   -1.1398    4.4719 H         1 UNK         0.0000 
     50 H50         0.1858   -3.5046    5.0725 H         1 UNK         0.0000 
     51 H51         0.1996   -5.2123    3.4272 H         1 UNK         0.0000 
     52 O52        -7.8280    2.3819   -0.4477 O.3       1 UNK         0.0000 
     53 C53        -8.4622    1.1438   -0.6208 C.3       1 UNK         0.0000 
     54 C54        -7.5241   -0.0023   -0.2080 C.3       1 UNK         0.0000 
     55 H55        -8.0648   -0.9558   -0.4024 H         1 UNK         0.0000 
     56 C56        -7.2652    0.0752    1.2863 C.2       1 UNK         0.0000 
     57 O57        -6.7165    1.1771    1.8376 O.2       1 UNK         0.0000 
     58 O58        -7.5958   -0.8513    2.0095 O.3       1 UNK         0.0000 
     59 N59        -6.3360   -0.0034   -1.0774 N.am      1 UNK         0.0000 
     60 C60        -5.0132    0.0229   -0.6984 C.2       1 UNK         0.0000 
     61 O61        -4.7510    0.0392    0.4869 O.2       1 UNK         0.0000 
     62 C62        -3.8637    0.0174   -1.7071 C.ar      1 UNK         0.0000 
     63 C63        -2.4704    0.0085   -1.3233 C.ar      1 UNK         0.0000 
     64 O64        -2.0800    0.0000    0.0000 O.co2     1 UNK         0.0000 
     65 C65        -1.4413    0.0069   -2.3565 C.ar      1 UNK         0.0000 
     66 O66        -0.0849    0.0000   -2.0783 O.co2     1 UNK         0.0000 
     67 C67        -1.8180    0.0138   -3.6981 C.ar      1 UNK         0.0000 
     68 C68        -3.1515    0.0227   -4.0601 C.ar      1 UNK         0.0000 
     69 C69        -4.1510    0.0252   -3.0952 C.ar      1 UNK         0.0000 
     70 H70        -8.4972    3.0714   -0.6954 H         1 UNK         0.0000 
     71 H71        -9.3879    1.0997   -0.0025 H         1 UNK         0.0000 
     72 H72        -8.7378    1.0175   -1.6916 H         1 UNK         0.0000 
     73 H73        -6.5773   -0.0545   -2.0698 H         1 UNK         0.0000 
     74 H74        -1.0636    0.0126   -4.4752 H         1 UNK         0.0000 
     75 H75        -3.4178    0.0287   -5.1094 H         1 UNK         0.0000 
     76 H76        -5.1480    0.0363   -3.4926 H         1 UNK         0.0000 
     77 H77        -2.9576    6.5424    1.0294 H         1 UNK         0.0000 
     78 H78         1.1122   -6.5422   -2.9013 H         1 UNK         0.0000 
     79 H79        -7.3639   -0.6469    2.9184 H         1 UNK         0.0000 
@<TRIPOS>BOND
     1    1   14 nc   
     2    1   16 nc   
     3    1   39 nc   
     4    1   41 nc   
     5    1   64 nc   
     6    1   66 nc   
     7    2   20 1    
     8    2    3 1    
     9    3    4 1    
    10    3   21 1    
    11    3   22 1    
    12    4    5 1    
    13    4    6 1    
    14    4    9 1    
    15    6    7 1    
    16    6    8 2    
    17    7   77 1    
    18    9   10 am   BACKBONE|DICT|INTERRES
    19    9   23 1    
    20   10   11 2    
    21   10   12 1    
    22   12   13 ar   
    23   12   19 ar   
    24   13   14 1    
    25   13   15 ar   
    26   15   16 1    
    27   15   17 ar   
    28   17   18 ar   
    29   17   24 1    
    30   18   19 ar   
    31   18   25 1    
    32   19   26 1    
    33   27   28 1    
    34   27   45 1    
    35   28   47 1    
    36   28   29 1    
    37   28   46 1    
    38   29   30 1    
    39   29   34 1    
    40   29   31 1    
    41   31   32 1    
    42   31   33 2    
    43   32   78 1    
    44   34   48 1    
    45   34   35 am   BACKBONE|DICT|INTERRES
    46   35   37 1    
    47   35   36 2    
    48   37   44 ar   
    49   37   38 ar   
    50   38   40 ar   
    51   38   39 1    
    52   40   42 ar   
    53   40   41 1    
    54   42   43 ar   
    55   42   49 1    
    56   43   50 1    
    57   43   44 ar   
    58   44   51 1    
    59   52   53 1    
    60   52   70 1    
    61   53   54 1    
    62   53   71 1    
    63   53   72 1    
    64   54   55 1    
    65   54   56 1    
    66   54   59 1    
    67   56   57 2    
    68   56   58 1    
    69   58   79 1    
    70   59   60 am   BACKBONE|DICT|INTERRES
    71   59   73 1    
    72   60   61 2    
    73   60   62 1    
    74   62   63 ar   
    75   62   69 ar   
    76   63   64 1    
    77   63   65 ar   
    78   65   66 1    
    79   65   67 ar   
    80   67   68 ar   
    81   67   74 1    
    82   68   69 ar   
    83   68   75 1    
    84   69   76 1    
@<TRIPOS>SUBSTRUCTURE
     1 UNK         1 GROUP             0       ****    0 ROOT    
@<TRIPOS>MOLECULE
003_c2
82   87    1
SMALL
USER_CHARGES


@<TRIPOS>ATOM
      1 Fe1         0.0000    0.0000    0.0000 Fe        1 UNK         0.0000 
      2 O2          1.2178    6.0282   -3.9637 O.3       1 UNK         0.0000 
      3 C3          0.5248    5.0545   -3.2314 C.3       1 UNK         0.0000 
      4 C4          1.0570    5.0051   -1.7914 C.3       1 UNK         0.0000 
      5 H5          2.1321    4.7688   -1.8831 H         1 UNK         0.0000 
      6 C6          0.8593    6.3415   -1.1182 C.2       1 UNK         0.0000 
      7 O7         -0.3815    6.8368   -0.9407 O.2       1 UNK         0.0000 
      8 O8          1.8225    6.9840   -0.7316 O.3       1 UNK         0.0000 
      9 N9          0.3320    3.9819   -1.0510 N.am      1 UNK         0.0000 
     10 C10         0.8294    2.8911   -0.3820 C.2       1 UNK         0.0000 
     11 O11         0.0000    2.0800    0.0000 O.co2     1 UNK         0.0000 
     12 C12         2.2944    2.6248   -0.0589 C.ar      1 UNK         0.0000 
     13 C13         2.8348    1.3016    0.1294 C.ar      1 UNK         0.0000 
     14 O14         2.0720    0.1826    0.0000 O.co2     1 UNK         0.0000 
     15 C15         4.2027    1.1372    0.4465 C.ar      1 UNK         0.0000 
     16 O16         4.7150   -0.1024    0.6057 O.3       1 UNK         0.0000 
     17 C17         5.0317    2.2493    0.6003 C.ar      1 UNK         0.0000 
     18 C18         4.5155    3.5279    0.4585 C.ar      1 UNK         0.0000 
     19 C19         3.1724    3.7132    0.1426 C.ar      1 UNK         0.0000 
     20 H20         0.7738    6.0749   -4.8499 H         1 UNK         0.0000 
     21 H21         0.6750    4.0591   -3.7059 H         1 UNK         0.0000 
     22 H22        -0.5637    5.2952   -3.2190 H         1 UNK         0.0000 
     23 H23        -0.6981    4.0581   -1.0990 H         1 UNK         0.0000 
     24 H24         5.6456   -0.2569    0.8224 H         1 UNK         0.0000 
     25 H25         6.0785    2.1224    0.8468 H         1 UNK         0.0000 
     26 H26         5.1590    4.3861    0.6045 H         1 UNK         0.0000 
     27 H27         2.8330    4.7319    0.0969 H         1 UNK         0.0000 
     28 O28        -3.4160   -6.3143    1.7911 O.3       1 UNK         0.0000 
     29 C29        -2.8614   -5.3052    0.9919 C.3       1 UNK         0.0000 
     30 C30        -1.3820   -5.1042    1.3532 C.3       1 UNK         0.0000 
     31 H31        -1.3724   -4.8338    2.4251 H         1 UNK         0.0000 
     32 C32        -0.6126   -6.3813    1.1194 C.2       1 UNK         0.0000 
     33 O33        -0.5298   -6.9081   -0.1182 O.2       1 UNK         0.0000 
     34 O34        -0.0619   -6.9471    2.0503 O.3       1 UNK         0.0000 
     35 N35        -0.8277   -4.0484    0.5168 N.am      1 UNK         0.0000 
     36 C36        -0.2163   -2.8792    0.8986 C.2       1 UNK         0.0000 
     37 O37         0.0000   -2.0800    0.0000 O.co2     1 UNK         0.0000 
     38 C38         0.2364   -2.5246    2.3137 C.ar      1 UNK         0.0000 
     39 C39         0.3378   -1.1740    2.8212 C.ar      1 UNK         0.0000 
     40 O40         0.0000   -0.0832    2.0783 O.co2     1 UNK         0.0000 
     41 C41         0.7895   -0.9518    4.1428 C.ar      1 UNK         0.0000 
     42 O42         0.8692    0.3069    4.6263 O.3       1 UNK         0.0000 
     43 C43         1.1587   -2.0240    4.9558 C.ar      1 UNK         0.0000 
     44 C44         1.1003   -3.3197    4.4691 C.ar      1 UNK         0.0000 
     45 C45         0.6557   -3.5646    3.1735 C.ar      1 UNK         0.0000 
     46 H46        -4.3314   -6.4712    1.4416 H         1 UNK         0.0000 
     47 H47        -3.4093   -4.3527    1.1675 H         1 UNK         0.0000 
     48 H48        -2.9473   -5.5852   -0.0838 H         1 UNK         0.0000 
     49 H49        -0.9788   -4.1747   -0.4982 H         1 UNK         0.0000 
     50 H50         1.1731    0.5011    5.5245 H         1 UNK         0.0000 
     51 H51         1.5077   -1.8507    5.9661 H         1 UNK         0.0000 
     52 H52         1.4122   -4.1441    5.0977 H         1 UNK         0.0000 
     53 H53         0.6835   -4.5893    2.8495 H         1 UNK         0.0000 
     54 O54        -6.1831   -3.3766   -2.1430 O.3       1 UNK         0.0000 
     55 C55        -5.2177   -2.8516   -1.2729 C.3       1 UNK         0.0000 
     56 C56        -5.0234   -1.3531   -1.5485 C.3       1 UNK         0.0000 
     57 H57        -4.7086   -1.2804   -2.6058 H         1 UNK         0.0000 
     58 C58        -6.3209   -0.6128   -1.3314 C.2       1 UNK         0.0000 
     59 O59        -6.9019   -0.6008   -0.1154 O.3       1 UNK         0.0000 
     60 O60        -6.8539   -0.0211   -2.2566 O.2       1 UNK         0.0000 
     61 N61        -4.0134   -0.8292   -0.6388 N.am      1 UNK         0.0000 
     62 C62        -2.8351   -0.1931   -0.9436 C.2       1 UNK         0.0000 
     63 O63        -2.0800    0.0000    0.0000 O.co2     1 UNK         0.0000 
     64 C64        -2.4332    0.3166   -2.3285 C.ar      1 UNK         0.0000 
     65 C65        -1.0729    0.4081   -2.8135 C.ar      1 UNK         0.0000 
     66 O66         0.0000    0.0000   -2.0800 O.co2     1 UNK         0.0000 
     67 C67        -0.8226    0.9206   -4.1081 C.ar      1 UNK         0.0000 
     68 O68         0.4440    0.9922   -4.5719 O.3       1 UNK         0.0000 
     69 C69        -1.8742    1.3566   -4.9147 C.ar      1 UNK         0.0000 
     70 C70        -3.1778    1.3039   -4.4490 C.ar      1 UNK         0.0000 
     71 C71        -3.4508    0.8017   -3.1803 C.ar      1 UNK         0.0000 
     72 H72        -6.3414   -4.3108   -1.8481 H         1 UNK         0.0000 
     73 H73        -4.2504   -3.3773   -1.4348 H         1 UNK         0.0000 
     74 H74        -5.5423   -2.9970   -0.2162 H         1 UNK         0.0000 
     75 H75        -4.1837   -1.0256    0.3620 H         1 UNK         0.0000 
     76 H76         0.6579    1.3342   -5.4518 H         1 UNK         0.0000 
     77 H77        -1.6783    1.7506   -5.9040 H         1 UNK         0.0000 
     78 H78        -3.9859    1.6647   -5.0724 H         1 UNK         0.0000 
     79 H79        -4.4796    0.8323   -2.8669 H         1 UNK         0.0000 
     80 H80         1.5215    7.8024   -0.3300 H         1 UNK         0.0000 
     81 H81         0.3786   -7.7375    1.7295 H         1 UNK         0.0000 
     82 H82        -7.7130   -0.0886   -0.1528 H         1 UNK         0.0000 
@<TRIPOS>BOND
     1    1   11 nc   
     2    1   14 nc   
     3    1   37 nc   
     4    1   40 nc   
     5    1   63 nc   
     6    1   66 nc   
     7    2    3 1    
     8    2   20 1    
     9    3   22 1    
    10    3    4 1    
    11    3   21 1    
    12    4    5 1    
    13    4    6 1    
    14    4    9 1    
    15    6    7 2    
    16    6    8 1    
    17    8   80 1    
    18    9   10 am   BACKBONE|DICT|INTERRES
    19    9   23 1    
    20   10   12 1    
    21   10   11 2    
    22   12   13 ar   
    23   12   19 ar   
    24   13   15 ar   
    25   13   14 1    
    26   15   17 ar   
    27   15   16 1    
    28   16   24 1    
    29   17   25 1    
    30   17   18 ar   
    31   18   26 1    
    32   18   19 ar   
    33   19   27 1    
    34   28   29 1    
    35   28   46 1    
    36   29   47 1    
    37   29   30 1    
    38   29   48 1    
    39   30   31 1    
    40   30   32 1    
    41   30   35 1    
    42   32   34 1    
    43   32   33 2    
    44   34   81 1    
    45   35   36 am   BACKBONE|DICT|INTERRES
    46   35   49 1    
    47   36   37 2    
    48   36   38 1    
    49   38   39 ar   
    50   38   45 ar   
    51   39   41 ar   
    52   39   40 1    
    53   41   42 1    
    54   41   43 ar   
    55   42   50 1    
    56   43   51 1    
    57   43   44 ar   
    58   44   52 1    
    59   44   45 ar   
    60   45   53 1    
    61   54   72 1    
    62   54   55 1    
    63   55   74 1    
    64   55   56 1    
    65   55   73 1    
    66   56   57 1    
    67   56   58 1    
    68   56   61 1    
    69   58   59 1    
    70   58   60 2    
    71   59   82 1    
    72   61   75 1    
    73   61   62 am   BACKBONE|DICT|INTERRES
    74   62   63 2    
    75   62   64 1    
    76   64   65 ar   
    77   64   71 ar   
    78   65   66 1    
    79   65   67 ar   
    80   67   68 1    
    81   67   69 ar   
    82   68   76 1    
    83   69   70 ar   
    84   69   77 1    
    85   70   71 ar   
    86   70   78 1    
    87   71   79 1    
@<TRIPOS>SUBSTRUCTURE
     1 UNK         1 GROUP             0       ****    0 ROOT    
@<TRIPOS>MOLECULE
004_c1
88   93    1
SMALL
USER_CHARGES


@<TRIPOS>ATOM
      1 Fe1         0.0000    0.0000    0.0000 Fe        1 UNK         0.0000 
      2 O2          6.5380   -1.1462   -1.3330 O.3       1 UNK         0.0000 
      3 C3          7.5742   -0.2065   -1.2292 C.3       1 UNK         0.0000 
      4 H4          8.5416   -0.7599   -1.1686 H         1 UNK         0.0000 
      5 C5          7.6018    0.6048   -2.5301 C.3       1 UNK         0.0000 
      6 C6          7.4173    0.6665    0.0574 C.3       1 UNK         0.0000 
      7 H7          7.3208   -0.0148    0.9331 H         1 UNK         0.0000 
      8 C8          8.6652    1.4919    0.3092 C.2       1 UNK         0.0000 
      9 O9          9.0370    2.4703   -0.5386 O.2       1 UNK         0.0000 
     10 O10         9.3290    1.2952    1.3150 O.3       1 UNK         0.0000 
     11 N11         6.2461    1.5458    0.0086 N.am      1 UNK         0.0000 
     12 C12         4.9559    1.0902    0.0763 C.2       1 UNK         0.0000 
     13 O13         4.7802   -0.1055    0.2191 O.2       1 UNK         0.0000 
     14 C14         3.7502    2.0168    0.0312 C.ar      1 UNK         0.0000 
     15 C15         3.9436    3.4225    0.0162 C.ar      1 UNK         0.0000 
     16 C16         2.8776    4.3145   -0.0039 C.ar      1 UNK         0.0000 
     17 C17         1.5744    3.8532   -0.0068 C.ar      1 UNK         0.0000 
     18 C18         1.3087    2.4852    0.0034 C.ar      1 UNK         0.0000 
     19 O19         0.0000    2.0800    0.0000 O.co2     1 UNK         0.0000 
     20 C20         2.3911    1.5376    0.0152 C.ar      1 UNK         0.0000 
     21 O21         2.0704    0.1998    0.0000 O.co2     1 UNK         0.0000 
     22 H22         6.7471   -1.8811   -0.6984 H         1 UNK         0.0000 
     23 H23         7.7081   -0.0855   -3.3938 H         1 UNK         0.0000 
     24 H24         6.6572    1.1760   -2.6539 H         1 UNK         0.0000 
     25 H25         8.4587    1.3034   -2.5639 H         1 UNK         0.0000 
     26 H26         6.4371    2.5507   -0.0490 H         1 UNK         0.0000 
     27 H27         4.9126    3.8860    0.0284 H         1 UNK         0.0000 
     28 H28         3.0654    5.3810   -0.0125 H         1 UNK         0.0000 
     29 H29         0.7606    4.5679   -0.0186 H         1 UNK         0.0000 
     30 O30        -1.3747    1.2804    6.4926 O.3       1 UNK         0.0000 
     31 C31        -1.3066    0.3532    7.5430 C.3       1 UNK         0.0000 
     32 H32        -1.2560    0.9179    8.5044 H         1 UNK         0.0000 
     33 C33        -2.6209   -0.4370    7.5555 C.3       1 UNK         0.0000 
     34 C34        -0.0319   -0.5429    7.4217 C.3       1 UNK         0.0000 
     35 H35         0.8572    0.1231    7.3362 H         1 UNK         0.0000 
     36 C36         0.1811   -1.3581    8.6837 C.2       1 UNK         0.0000 
     37 O37        -0.6900   -2.3183    9.0486 O.2       1 UNK         0.0000 
     38 O38         1.1764   -1.1705    9.3656 O.3       1 UNK         0.0000 
     39 N39        -0.0725   -1.4334    6.2596 N.am      1 UNK         0.0000 
     40 C40         0.0332   -0.9941    4.9654 C.2       1 UNK         0.0000 
     41 O41         0.2068    0.1962    4.7808 O.2       1 UNK         0.0000 
     42 C42        -0.0075   -1.9342    3.7682 C.ar      1 UNK         0.0000 
     43 C43        -0.0399   -3.3360    3.9821 C.ar      1 UNK         0.0000 
     44 C44        -0.0577   -4.2445    2.9312 C.ar      1 UNK         0.0000 
     45 C45        -0.0412   -3.8065    1.6213 C.ar      1 UNK         0.0000 
     46 C46        -0.0130   -2.4446    1.3269 C.ar      1 UNK         0.0000 
     47 O47         0.0000   -2.0800    0.0000 O.co2     1 UNK         0.0000 
     48 C48        -0.0023   -1.4723    2.4016 C.ar      1 UNK         0.0000 
     49 O49         0.0000   -0.1310    2.0759 O.co2     1 UNK         0.0000 
     50 H50        -0.7344    2.0090    6.7059 H         1 UNK         0.0000 
     51 H51        -3.4754    0.2681    7.6358 H         1 UNK         0.0000 
     52 H52        -2.7354   -1.0190    6.6163 H         1 UNK         0.0000 
     53 H53        -2.6828   -1.1234    8.4206 H         1 UNK         0.0000 
     54 H54        -0.1582   -2.4339    6.4605 H         1 UNK         0.0000 
     55 H55        -0.0426   -3.7855    4.9574 H         1 UNK         0.0000 
     56 H56        -0.0796   -5.3072    3.1373 H         1 UNK         0.0000 
     57 H57        -0.0522   -4.5373    0.8220 H         1 UNK         0.0000 
     58 O58         1.3321   -1.2785   -6.5093 O.3       1 UNK         0.0000 
     59 C59         0.4191   -1.1554   -7.5675 C.3       1 UNK         0.0000 
     60 H60         0.9954   -1.0968   -8.5216 H         1 UNK         0.0000 
     61 C61        -0.4096   -2.4447   -7.6229 C.3       1 UNK         0.0000 
     62 C62        -0.4394    0.1419   -7.4208 C.3       1 UNK         0.0000 
     63 H63         0.2515    1.0085   -7.3074 H         1 UNK         0.0000 
     64 C64        -1.2371    0.4114   -8.6836 C.2       1 UNK         0.0000 
     65 O65        -2.2195   -0.4210   -9.0784 O.3       1 UNK         0.0000 
     66 O66        -1.0143    1.4180   -9.3377 O.2       1 UNK         0.0000 
     67 N67        -1.3406    0.0975   -6.2673 N.am      1 UNK         0.0000 
     68 C68        -0.9111    0.1619   -4.9671 C.2       1 UNK         0.0000 
     69 O69         0.2818    0.3015   -4.7685 O.2       1 UNK         0.0000 
     70 C70        -1.8637    0.1156   -3.7791 C.ar      1 UNK         0.0000 
     71 C71        -3.2627    0.1445   -4.0098 C.ar      1 UNK         0.0000 
     72 C72        -4.1853    0.1255   -2.9728 C.ar      1 UNK         0.0000 
     73 C73        -3.7672    0.0797   -1.6581 C.ar      1 UNK         0.0000 
     74 C74        -2.4104    0.0455   -1.3403 C.ar      1 UNK         0.0000 
     75 O75        -2.0800    0.0000    0.0000 O.co2     1 UNK         0.0000 
     76 C76        -1.4167    0.0569   -2.4078 C.ar      1 UNK         0.0000 
     77 O77        -0.0726    0.0000   -2.0787 O.co2     1 UNK         0.0000 
     78 H78         2.0845   -0.6594   -6.7010 H         1 UNK         0.0000 
     79 H79         0.2704   -3.3178   -7.7189 H         1 UNK         0.0000 
     80 H80        -1.0051   -2.5664   -6.6932 H         1 UNK         0.0000 
     81 H81        -1.0880   -2.4634   -8.4964 H         1 UNK         0.0000 
     82 H82        -2.3409    0.0395   -6.4797 H         1 UNK         0.0000 
     83 H83        -3.6995    0.1946   -4.9893 H         1 UNK         0.0000 
     84 H84        -5.2451    0.1523   -3.1938 H         1 UNK         0.0000 
     85 H85        -4.5116    0.0695   -0.8714 H         1 UNK         0.0000 
     86 H86        10.0793    1.8939    1.3259 H         1 UNK         0.0000 
     87 H87         1.1622   -1.7608   10.1226 H         1 UNK         0.0000 
     88 H88        -2.6099   -0.0930   -9.8918 H         1 UNK         0.0000 
@<TRIPOS>BOND
     1    1   19 nc   
     2    1   21 nc   
     3    1   47 nc   
     4    1   49 nc   
     5    1   75 nc   
     6    1   77 nc   
     7    2    3 1    
     8    2   22 1    
     9    3    4 1    
    10    3    6 1    
    11    3    5 1    
    12    5   23 1    
    13    5   24 1    
    14    5   25 1    
    15    6    8 1    
    16    6    7 1    
    17    6   11 1    
    18    8   10 1    
    19    8    9 2    
    20   10   86 1    
    21   11   12 am   BACKBONE|DICT|INTERRES
    22   11   26 1    
    23   12   13 2    
    24   12   14 1    
    25   14   15 ar   
    26   14   20 ar   
    27   15   27 1    
    28   15   16 ar   
    29   16   17 ar   
    30   16   28 1    
    31   17   18 ar   
    32   17   29 1    
    33   18   20 ar   
    34   18   19 1    
    35   20   21 1    
    36   30   50 1    
    37   30   31 1    
    38   31   33 1    
    39   31   32 1    
    40   31   34 1    
    41   33   51 1    
    42   33   53 1    
    43   33   52 1    
    44   34   35 1    
    45   34   36 1    
    46   34   39 1    
    47   36   37 2    
    48   36   38 1    
    49   38   87 1    
    50   39   54 1    
    51   39   40 am   BACKBONE|DICT|INTERRES
    52   40   41 2    
    53   40   42 1    
    54   42   43 ar   
    55   42   48 ar   
    56   43   55 1    
    57   43   44 ar   
    58   44   56 1    
    59   44   45 ar   
    60   45   46 ar   
    61   45   57 1    
    62   46   48 ar   
    63   46   47 1    
    64   48   49 1    
    65   58   59 1    
    66   58   78 1    
    67   59   60 1    
    68   59   62 1    
    69   59   61 1    
    70   61   80 1    
    71   61   79 1    
    72   61   81 1    
    73   62   63 1    
    74   62   67 1    
    75   62   64 1    
    76   64   65 1    
    77   64   66 2    
    78   65   88 1    
    79   67   68 am   BACKBONE|DICT|INTERRES
    80   67   82 1    
    81   68   69 2    
    82   68   70 1    
    83   70   76 ar   
    84   70   71 ar   
    85   71   72 ar   
    86   71   83 1    
    87   72   73 ar   
    88   72   84 1    
    89   73   74 ar   
    90   73   85 1    
    91   74   75 1    
    92   74   76 ar   
    93   76   77 1    
@<TRIPOS>SUBSTRUCTURE
     1 UNK         1 GROUP             0       ****    0 ROOT    
@<TRIPOS>MOLECULE
004_c2
91   96    1
SMALL
USER_CHARGES


@<TRIPOS>ATOM
      1 Fe1         0.0000    0.0000    0.0000 Fe        1 UNK         0.0000 
      2 O2         -1.9715    3.1536   -1.4950 O.3       1 UNK         0.0000 
      3 C3         -2.3502    4.3544   -0.9139 C.3       1 UNK         0.0000 
      4 H4         -2.0660    5.2093   -1.5796 H         1 UNK         0.0000 
      5 C5         -3.8787    4.3729   -0.8056 C.3       1 UNK         0.0000 
      6 C6         -1.6243    4.5047    0.4390 C.3       1 UNK         0.0000 
      7 H7         -1.9633    3.7288    1.1603 H         1 UNK         0.0000 
      8 C8         -1.9574    5.8680    1.0092 C.2       1 UNK         0.0000 
      9 O9         -2.5852    5.9700    2.1951 O.3       1 UNK         0.0000 
     10 O10        -1.6677    6.8846    0.3944 O.2       1 UNK         0.0000 
     11 N11        -0.1757    4.3897    0.2736 N.am      1 UNK         0.0000 
     12 C12         0.5323    3.2389    0.0278 C.2       1 UNK         0.0000 
     13 O13         0.0000    2.0800    0.0000 O.co2     1 UNK         0.0000 
     14 C14         2.0401    3.3262   -0.0372 C.ar      1 UNK         0.0000 
     15 C15         2.5730    3.7149    1.2049 C.ar      1 UNK         0.0000 
     16 C16         3.2467    2.7593    1.9803 C.ar      1 UNK         0.0000 
     17 C17         3.1719    1.4219    1.5691 C.ar      1 UNK         0.0000 
     18 C18         2.6456    1.1410    0.3011 C.ar      1 UNK         0.0000 
     19 O19         2.0796   -0.0396    0.0000 O.co2     1 UNK         0.0000 
     20 C20         2.4452    2.1577   -0.5997 C.ar      1 UNK         0.0000 
     21 O21         2.2477    1.9628   -1.9133 O.3       1 UNK         0.0000 
     22 H22        -1.3262    3.3958   -2.2078 H         1 UNK         0.0000 
     23 H23        -4.3194    4.2286   -1.8168 H         1 UNK         0.0000 
     24 H24        -4.2375    3.5541   -0.1466 H         1 UNK         0.0000 
     25 H25        -4.2383    5.3471   -0.4141 H         1 UNK         0.0000 
     26 H26         0.3792    5.2548    0.3712 H         1 UNK         0.0000 
     27 H27         3.6112    3.0099    2.9650 H         1 UNK         0.0000 
     28 H28         3.4274    0.6319    2.2556 H         1 UNK         0.0000 
     29 H29         2.6562    1.2068   -2.3643 H         1 UNK         0.0000 
     30 O30        -2.2392   -4.1129   -1.7711 O.3       1 UNK         0.0000 
     31 C31        -1.1998   -4.8340   -2.3756 C.3       1 UNK         0.0000 
     32 H32        -1.5227   -5.8903   -2.2813 H         1 UNK         0.0000 
     33 C33        -1.0247   -4.4816   -3.8788 C.3       1 UNK         0.0000 
     34 C34         0.1649   -4.5873   -1.6437 C.3       1 UNK         0.0000 
     35 H35         0.6698   -3.6716   -2.0208 H         1 UNK         0.0000 
     36 C36         1.0498   -5.7759   -1.9549 C.2       1 UNK         0.0000 
     37 O37         2.2014   -5.6180   -2.6295 O.2       1 UNK         0.0000 
     38 O38         0.6961   -6.9018   -1.6301 O.3       1 UNK         0.0000 
     39 N39         0.0236   -4.4405   -0.1939 N.am      1 UNK         0.0000 
     40 C40        -0.0314   -3.2544    0.5151 C.2       1 UNK         0.0000 
     41 O41         0.0000   -2.0800    0.0000 O.co2     1 UNK         0.0000 
     42 C42        -0.0283   -3.2785    2.0112 C.ar      1 UNK         0.0000 
     43 C43         1.1585   -3.7246    2.6112 C.ar      1 UNK         0.0000 
     44 C44         1.8974   -2.8024    3.3805 C.ar      1 UNK         0.0000 
     45 C45         1.5139   -1.4478    3.3273 C.ar      1 UNK         0.0000 
     46 C46         0.3022   -1.1424    2.6903 C.ar      1 UNK         0.0000 
     47 O47         0.0000    0.0158    2.0799 O.co2     1 UNK         0.0000 
     48 C48        -0.5768   -2.0944    2.3583 C.ar      1 UNK         0.0000 
     49 O49        -1.7574   -1.7373    1.8633 O.3       1 UNK         0.0000 
     50 H50        -2.9575   -3.9524   -2.4382 H         1 UNK         0.0000 
     51 H51        -1.9915   -4.5009   -4.4225 H         1 UNK         0.0000 
     52 H52        -0.5842   -3.4674   -4.0154 H         1 UNK         0.0000 
     53 H53        -0.3445   -5.2120   -4.3641 H         1 UNK         0.0000 
     54 H54        -0.0039   -5.3106    0.3608 H         1 UNK         0.0000 
     55 H55         2.8453   -3.0891    3.8130 H         1 UNK         0.0000 
     56 H56         2.1942   -0.6789    3.6606 H         1 UNK         0.0000 
     57 H57        -2.1336   -0.8913    2.1250 H         1 UNK         0.0000 
     58 O58        -4.0987   -2.2186    1.7941 O.3       1 UNK         0.0000 
     59 C59        -4.8200   -1.1761    2.3862 C.3       1 UNK         0.0000 
     60 H60        -5.8721   -1.5007    2.3250 H         1 UNK         0.0000 
     61 C61        -4.4385   -0.9936    3.8985 C.3       1 UNK         0.0000 
     62 C62        -4.5736    0.1755    1.6527 C.3       1 UNK         0.0000 
     63 H63        -3.6443    0.6542    2.0152 H         1 UNK         0.0000 
     64 C64        -5.7511    1.0788    1.9591 C.2       1 UNK         0.0000 
     65 O65        -5.5811    2.2353    2.6250 O.3       1 UNK         0.0000 
     66 O66        -6.8843    0.7255    1.6547 O.2       1 UNK         0.0000 
     67 N67        -4.4438    0.0140    0.2070 N.am      1 UNK         0.0000 
     68 C68        -3.2582   -0.0434   -0.5060 C.2       1 UNK         0.0000 
     69 O69        -2.0800    0.0000    0.0000 O.co2     1 UNK         0.0000 
     70 C70        -3.2711   -0.1131   -2.0016 C.ar      1 UNK         0.0000 
     71 C71        -3.7686    0.9890   -2.7135 C.ar      1 UNK         0.0000 
     72 C72        -2.8969    1.6318   -3.6172 C.ar      1 UNK         0.0000 
     73 C73        -1.5164    1.2882   -3.5461 C.ar      1 UNK         0.0000 
     74 C74        -1.1634    0.1863   -2.7491 C.ar      1 UNK         0.0000 
     75 O75         0.0000    0.0000   -2.0800 O.co2     1 UNK         0.0000 
     76 C76        -2.0922   -0.6719   -2.3391 C.ar      1 UNK         0.0000 
     77 O77        -1.6983   -1.7978   -1.7683 O.3       1 UNK         0.0000 
     78 H78        -3.9422   -2.9402    2.4588 H         1 UNK         0.0000 
     79 H79        -4.4504   -1.9579    4.4489 H         1 UNK         0.0000 
     80 H80        -3.4205   -0.5562    4.0192 H         1 UNK         0.0000 
     81 H81        -5.1579   -0.3090    4.3912 H         1 UNK         0.0000 
     82 H82        -5.3120   -0.0460   -0.3418 H         1 UNK         0.0000 
     83 H83        -0.8692   -2.1787   -2.0757 H         1 UNK         0.0000 
     84 H84        -2.7195    6.8964    2.4080 H         1 UNK         0.0000 
     85 H85         1.3641   -7.5372   -1.8978 H         1 UNK         0.0000 
     86 H86        -6.4291    2.6732    2.7283 H         1 UNK         0.0000 
     87 H87         2.4599    4.7333    1.5461 H         1 UNK         0.0000 
     88 H88         1.4805   -4.7467    2.4768 H         1 UNK         0.0000 
     89 H89        -4.7861    1.3167   -2.5595 H         1 UNK         0.0000 
     90 H90        -0.7869    1.8673   -4.0928 H         1 UNK         0.0000 
     91 H91        -3.2854    2.3505   -4.3235 H         1 UNK         0.0000 
@<TRIPOS>BOND
     1    1   13 nc   
     2    1   19 nc   
     3    1   41 nc   
     4    1   47 nc   
     5    1   69 nc   
     6    1   75 nc   
     7    2    3 1    
     8    2   22 1    
     9    3    4 1    
    10    3    5 1    
    11    3    6 1    
    12    5   25 1    
    13    5   24 1    
    14    5   23 1    
    15    6    8 1    
    16    6    7 1    
    17    6   11 1    
    18    8    9 1    
    19    8   10 2    
    20    9   84 1    
    21   11   26 1    
    22   11   12 am   BACKBONE|DICT|INTERRES
    23   12   13 2    
    24   12   14 1    
    25   14   15 ar   
    26   14   20 ar   
    27   15   16 ar   
    28   15   87 1    
    29   16   27 1    
    30   16   17 ar   
    31   17   28 1    
    32   17   18 ar   
    33   18   19 1    
    34   18   20 ar   
    35   20   21 1    
    36   21   29 1    
    37   30   31 1    
    38   30   50 1    
    39   31   32 1    
    40   31   34 1    
    41   31   33 1    
    42   33   51 1    
    43   33   52 1    
    44   33   53 1    
    45   34   35 1    
    46   34   39 1    
    47   34   36 1    
    48   36   38 1    
    49   36   37 2    
    50   38   85 1    
    51   39   54 1    
    52   39   40 am   BACKBONE|DICT|INTERRES
    53   40   41 2    
    54   40   42 1    
    55   42   48 ar   
    56   42   43 ar   
    57   43   44 ar   
    58   43   88 1    
    59   44   55 1    
    60   44   45 ar   
    61   45   56 1    
    62   45   46 ar   
    63   46   47 1    
    64   46   48 ar   
    65   48   49 1    
    66   49   57 1    
    67   58   59 1    
    68   58   78 1    
    69   59   60 1    
    70   59   61 1    
    71   59   62 1    
    72   61   80 1    
    73   61   81 1    
    74   61   79 1    
    75   62   64 1    
    76   62   63 1    
    77   62   67 1    
    78   64   65 1    
    79   64   66 2    
    80   65   86 1    
    81   67   68 am   BACKBONE|DICT|INTERRES
    82   67   82 1    
    83   68   69 2    
    84   68   70 1    
    85   70   71 ar   
    86   70   76 ar   
    87   71   72 ar   
    88   71   89 1    
    89   72   73 ar   
    90   72   91 1    
    91   73   74 ar   
    92   73   90 1    
    93   74   76 ar   
    94   74   75 1    
    95   76   77 1    
    96   77   83 1    
@<TRIPOS>SUBSTRUCTURE
     1 UNK         1 GROUP             0       ****    0 ROOT    
@<TRIPOS>MOLECULE
004_c3
91   96    1
SMALL
USER_CHARGES


@<TRIPOS>ATOM
      1 Fe1         0.0000    0.0000    0.0000 Fe        1 UNK         0.0000 
      2 O2          1.4814    7.5026    1.4802 O.3       1 UNK         0.0000 
      3 C3          0.7893    6.4636    0.8331 C.3       1 UNK         0.0000 
      4 H4          1.2881    6.3034   -0.1455 H         1 UNK         0.0000 
      5 C5         -0.6447    6.9056    0.4877 C.3       1 UNK         0.0000 
      6 C6          0.9119    5.1374    1.6430 C.3       1 UNK         0.0000 
      7 H7          1.9786    4.9269    1.8165 H         1 UNK         0.0000 
      8 C8          0.3208    5.2432    3.0335 C.2       1 UNK         0.0000 
      9 O9          1.1112    5.0865    4.1129 O.3       1 UNK         0.0000 
     10 O10        -0.8718    5.4513    3.1939 O.2       1 UNK         0.0000 
     11 N11         0.2594    4.0438    0.9344 N.am      1 UNK         0.0000 
     12 C12         0.8077    2.9230    0.3572 C.2       1 UNK         0.0000 
     13 O13         0.0000    2.0800    0.0000 O.co2     1 UNK         0.0000 
     14 C14         2.2952    2.6465    0.1101 C.ar      1 UNK         0.0000 
     15 C15         3.2016    3.7237   -0.0334 C.ar      1 UNK         0.0000 
     16 C16         4.5592    3.5267   -0.2662 C.ar      1 UNK         0.0000 
     17 C17         5.0720    2.2467   -0.3833 C.ar      1 UNK         0.0000 
     18 C18         4.2253    1.1432   -0.2921 C.ar      1 UNK         0.0000 
     19 O19         4.7370   -0.0992   -0.4308 O.3       1 UNK         0.0000 
     20 C20         2.8407    1.3163   -0.0602 C.ar      1 UNK         0.0000 
     21 O21         2.0708    0.1954    0.0000 O.co2     1 UNK         0.0000 
     22 H22         0.9611    7.7596    2.2855 H         1 UNK         0.0000 
     23 H23        -0.6058    7.8262   -0.1331 H         1 UNK         0.0000 
     24 H24        -1.1691    6.1259   -0.1025 H         1 UNK         0.0000 
     25 H25        -1.2347    7.1346    1.3972 H         1 UNK         0.0000 
     26 H26        -0.7730    4.0895    0.9315 H         1 UNK         0.0000 
     27 H27         2.8902    4.7471   -0.0084 H         1 UNK         0.0000 
     28 H28         5.2191    4.3794   -0.3661 H         1 UNK         0.0000 
     29 H29         6.1311    2.1119   -0.5642 H         1 UNK         0.0000 
     30 H30         5.6782   -0.2601   -0.5893 H         1 UNK         0.0000 
     31 O31         0.9624   -7.5436    1.7338 O.3       1 UNK         0.0000 
     32 C32         0.4528   -6.4812    0.9668 C.3       1 UNK         0.0000 
     33 H33        -0.5542   -6.2454    1.3695 H         1 UNK         0.0000 
     34 C34         0.2092   -6.9342   -0.4852 C.3       1 UNK         0.0000 
     35 C35         1.3373   -5.2085    1.1399 C.3       1 UNK         0.0000 
     36 H36         1.4237   -4.9823    2.2144 H         1 UNK         0.0000 
     37 C37         2.7651   -5.4231    0.6830 C.2       1 UNK         0.0000 
     38 O38         3.7756   -5.3181    1.5678 O.3       1 UNK         0.0000 
     39 O39         3.0198   -5.6722   -0.4852 O.2       1 UNK         0.0000 
     40 N40         0.7690   -4.0890    0.4007 N.am      1 UNK         0.0000 
     41 C41         0.2289   -2.9116    0.8643 C.2       1 UNK         0.0000 
     42 O42         0.0000   -2.0800    0.0000 O.co2     1 UNK         0.0000 
     43 C43        -0.1218   -2.5685    2.3196 C.ar      1 UNK         0.0000 
     44 C44        -0.4383   -3.6132    3.2201 C.ar      1 UNK         0.0000 
     45 C45        -0.7734   -3.3767    4.5493 C.ar      1 UNK         0.0000 
     46 C46        -0.8253   -2.0843    5.0395 C.ar      1 UNK         0.0000 
     47 C47        -0.5641   -1.0055    4.1970 C.ar      1 UNK         0.0000 
     48 O48        -0.6410    0.2510    4.6873 O.3       1 UNK         0.0000 
     49 C49        -0.2249   -1.2161    2.8392 C.ar      1 UNK         0.0000 
     50 O50         0.0000   -0.1086    2.0772 O.co2     1 UNK         0.0000 
     51 H51         1.7897   -7.8686    1.2920 H         1 UNK         0.0000 
     52 H52        -0.4727   -7.8112   -0.4871 H         1 UNK         0.0000 
     53 H53        -0.2783   -6.1311   -1.0756 H         1 UNK         0.0000 
     54 H54         1.1507   -7.2356   -0.9857 H         1 UNK         0.0000 
     55 H55         0.8514   -4.1685   -0.6268 H         1 UNK         0.0000 
     56 H56        -0.4741   -4.6396    2.9197 H         1 UNK         0.0000 
     57 H57        -1.0051   -4.2077    5.2036 H         1 UNK         0.0000 
     58 H58        -1.0879   -1.9190    6.0770 H         1 UNK         0.0000 
     59 H59        -0.8687    0.4375    5.6094 H         1 UNK         0.0000 
     60 O60        -7.4699    0.7995   -2.0270 O.3       1 UNK         0.0000 
     61 C61        -6.4385    0.3560   -1.1805 C.3       1 UNK         0.0000 
     62 H62        -6.1881   -0.6792   -1.4919 H         1 UNK         0.0000 
     63 C63        -6.9492    0.2259    0.2671 C.3       1 UNK         0.0000 
     64 C64        -5.1601    1.2286   -1.3733 C.3       1 UNK         0.0000 
     65 H65        -4.8921    1.2261   -2.4423 H         1 UNK         0.0000 
     66 C66        -5.3944    2.6875   -1.0423 C.2       1 UNK         0.0000 
     67 O67        -5.2564    3.6236   -2.0012 O.2       1 UNK         0.0000 
     68 O68        -5.6899    3.0343    0.0905 O.3       1 UNK         0.0000 
     69 N69        -4.0704    0.7264   -0.5456 N.am      1 UNK         0.0000 
     70 C70        -2.8680    0.1729   -0.9179 C.2       1 UNK         0.0000 
     71 O71        -2.0800    0.0000    0.0000 O.co2     1 UNK         0.0000 
     72 C72        -2.4606   -0.2597   -2.3380 C.ar      1 UNK         0.0000 
     73 C73        -3.4728   -0.6874   -3.2291 C.ar      1 UNK         0.0000 
     74 C74        -3.1993   -1.1053   -4.5270 C.ar      1 UNK         0.0000 
     75 C75        -1.8982   -1.1320   -4.9943 C.ar      1 UNK         0.0000 
     76 C76        -0.8468   -0.7601   -4.1591 C.ar      1 UNK         0.0000 
     77 O77         0.4194   -0.8120   -4.6272 O.3       1 UNK         0.0000 
     78 C78        -1.0937   -0.3344   -2.8319 C.ar      1 UNK         0.0000 
     79 O79        -0.0055    0.0000   -2.0800 O.co2     1 UNK         0.0000 
     80 H80        -7.8148    1.6564   -1.6635 H         1 UNK         0.0000 
     81 H81        -7.8263   -0.4557    0.2874 H         1 UNK         0.0000 
     82 H82        -6.1714   -0.2132    0.9253 H         1 UNK         0.0000 
     83 H83        -7.2689    1.2030    0.6802 H         1 UNK         0.0000 
     84 H84        -4.1991    0.8753    0.4691 H         1 UNK         0.0000 
     85 H85        -4.5016   -0.7466   -2.9380 H         1 UNK         0.0000 
     86 H86        -4.0080   -1.4211   -5.1740 H         1 UNK         0.0000 
     87 H87        -1.7037   -1.4602   -6.0078 H         1 UNK         0.0000 
     88 H88         0.6309   -1.0959   -5.5280 H         1 UNK         0.0000 
     89 H89         0.5865    5.1827    4.9110 H         1 UNK         0.0000 
     90 H90         4.6100   -5.4815    1.1221 H         1 UNK         0.0000 
     91 H91        -5.7995    3.9877    0.1154 H         1 UNK         0.0000 
@<TRIPOS>BOND
     1    1   13 nc   
     2    1   21 nc   
     3    1   42 nc   
     4    1   50 nc   
     5    1   71 nc   
     6    1   79 nc   
     7    2   22 1    
     8    2    3 1    
     9    3    4 1    
    10    3    6 1    
    11    3    5 1    
    12    5   25 1    
    13    5   23 1    
    14    5   24 1    
    15    6    7 1    
    16    6    8 1    
    17    6   11 1    
    18    8   10 2    
    19    8    9 1    
    20    9   89 1    
    21   11   12 am   BACKBONE|DICT|INTERRES
    22   11   26 1    
    23   12   13 2    
    24   12   14 1    
    25   14   15 ar   
    26   14   20 ar   
    27   15   27 1    
    28   15   16 ar   
    29   16   17 ar   
    30   16   28 1    
    31   17   18 ar   
    32   17   29 1    
    33   18   20 ar   
    34   18   19 1    
    35   19   30 1    
    36   20   21 1    
    37   31   32 1    
    38   31   51 1    
    39   32   35 1    
    40   32   33 1    
    41   32   34 1    
    42   34   52 1    
    43   34   53 1    
    44   34   54 1    
    45   35   36 1    
    46   35   37 1    
    47   35   40 1    
    48   37   38 1    
    49   37   39 2    
    50   38   90 1    
    51   40   41 am   BACKBONE|DICT|INTERRES
    52   40   55 1    
    53   41   42 2    
    54   41   43 1    
    55   43   49 ar   
    56   43   44 ar   
    57   44   45 ar   
    58   44   56 1    
    59   45   46 ar   
    60   45   57 1    
    61   46   58 1    
    62   46   47 ar   
    63   47   48 1    
    64   47   49 ar   
    65   48   59 1    
    66   49   50 1    
    67   60   80 1    
    68   60   61 1    
    69   61   62 1    
    70   61   63 1    
    71   61   64 1    
    72   63   81 1    
    73   63   83 1    
    74   63   82 1    
    75   64   65 1    
    76   64   66 1    
    77   64   69 1    
    78   66   68 1    
    79   66   67 2    
    80   68   91 1    
    81   69   84 1    
    82   69   70 am   BACKBONE|DICT|INTERRES
    83   70   71 2    
    84   70   72 1    
    85   72   73 ar   
    86   72   78 ar   
    87   73   85 1    
    88   73   74 ar   
    89   74   75 ar   
    90   74   86 1    
    91   75   76 ar   
    92   75   87 1    
    93   76   78 ar   
    94   76   77 1    
    95   77   88 1    
    96   78   79 1    
@<TRIPOS>SUBSTRUCTURE
     1 UNK         1 GROUP             0       ****    0 ROOT    
@<TRIPOS>MOLECULE
005_c1
43   48    1
SMALL
USER_CHARGES


@<TRIPOS>ATOM
      1 Fe1         0.0000    0.0000    0.0000 Fe        1 UNK         0.0000 
      2 O2          0.0000    2.0800    0.0000 O.co2     1 UNK         0.0000 
      3 C3          1.0649    2.9103    0.0322 C.2       1 UNK         0.0000 
      4 O4          0.8344    4.1100    0.0486 O.co2     1 UNK         0.0000 
      5 C5          2.5012    2.4325    0.0495 C.ar      1 UNK         0.0000 
      6 C6          2.9370    1.0638    0.0334 C.ar      1 UNK         0.0000 
      7 O7          2.0799    0.0146    0.0000 O.co2     1 UNK         0.0000 
      8 C8          4.3140    0.7730    0.0525 C.ar      1 UNK         0.0000 
      9 C9          5.2639    1.7883    0.0867 C.ar      1 UNK         0.0000 
     10 C10         4.8582    3.1158    0.1028 C.ar      1 UNK         0.0000 
     11 C11         3.5008    3.4347    0.0845 C.ar      1 UNK         0.0000 
     12 H12         4.6536   -0.2555    0.0405 H         1 UNK         0.0000 
     13 H13         6.3183    1.5432    0.1009 H         1 UNK         0.0000 
     14 H14         5.5989    3.9048    0.1295 H         1 UNK         0.0000 
     15 H15         3.2377    4.4848    0.0981 H         1 UNK         0.0000 
     16 O16         0.0000   -2.0800    0.0000 O.co2     1 UNK         0.0000 
     17 C17         0.0392   -2.9030    1.0710 C.2       1 UNK         0.0000 
     18 O18         0.0589   -4.1041    0.8475 O.co2     1 UNK         0.0000 
     19 C19         0.0600   -2.4178    2.5062 C.ar      1 UNK         0.0000 
     20 C20         0.0405   -1.0475    2.9386 C.ar      1 UNK         0.0000 
     21 O21         0.0000    0.0000    2.0800 O.co2     1 UNK         0.0000 
     22 C22         0.0636   -0.7528    4.3148 C.ar      1 UNK         0.0000 
     23 C23         0.1052   -1.7648    5.2677 C.ar      1 UNK         0.0000 
     24 C24         0.1246   -3.0935    4.8657 C.ar      1 UNK         0.0000 
     25 C25         0.1024   -3.4163    3.5093 C.ar      1 UNK         0.0000 
     26 H26         0.0490    0.2766    4.6519 H         1 UNK         0.0000 
     27 H27         0.1224   -1.5168    6.3213 H         1 UNK         0.0000 
     28 H28         0.1570   -3.8801    5.6086 H         1 UNK         0.0000 
     29 H29         0.1188   -4.4675    3.2501 H         1 UNK         0.0000 
     30 O30        -2.0800    0.0000    0.0000 O.co2     1 UNK         0.0000 
     31 C31        -2.9026    0.0391   -1.0713 C.2       1 UNK         0.0000 
     32 O32        -4.1037    0.0589   -0.8482 O.co2     1 UNK         0.0000 
     33 C33        -2.4172    0.0598   -2.5067 C.ar      1 UNK         0.0000 
     34 C34        -1.0470    0.0403   -2.9391 C.ar      1 UNK         0.0000 
     35 O35         0.0000    0.0000   -2.0800 O.co2     1 UNK         0.0000 
     36 C36        -0.7520    0.0633   -4.3152 C.ar      1 UNK         0.0000 
     37 C37        -1.7635    0.1050   -5.2683 C.ar      1 UNK         0.0000 
     38 C38        -3.0921    0.1247   -4.8665 C.ar      1 UNK         0.0000 
     39 C39        -3.4155    0.1025   -3.5101 C.ar      1 UNK         0.0000 
     40 H40         0.2779    0.0485   -4.6518 H         1 UNK         0.0000 
     41 H41        -1.5151    0.1222   -6.3216 H         1 UNK         0.0000 
     42 H42        -3.8785    0.1575   -5.6097 H         1 UNK         0.0000 
     43 H43        -4.4667    0.1193   -3.2511 H         1 UNK         0.0000 
@<TRIPOS>BOND
     1    1    2 nc   
     2    1    7 nc   
     3    1   16 nc   
     4    1   21 nc   
     5    1   30 nc   
     6    1   35 nc   
     7    2    3 1    
     8    3    4 2    
     9    3    5 1    
    10    5   11 ar   
    11    5    6 ar   
    12    6    8 ar   
    13    6    7 1    
    14    8    9 ar   
    15    8   12 1    
    16    9   13 1    
    17    9   10 ar   
    18   10   14 1    
    19   10   11 ar   
    20   11   15 1    
    21   16   17 1    
    22   17   19 1    
    23   17   18 2    
    24   19   20 ar   
    25   19   25 ar   
    26   20   22 ar   
    27   20   21 1    
    28   22   26 1    
    29   22   23 ar   
    30   23   27 1    
    31   23   24 ar   
    32   24   28 1    
    33   24   25 ar   
    34   25   29 1    
    35   30   31 1    
    36   31   32 2    
    37   31   33 1    
    38   33   34 ar   
    39   33   39 ar   
    40   34   35 1    
    41   34   36 ar   
    42   36   37 ar   
    43   36   40 1    
    44   37   38 ar   
    45   37   41 1    
    46   38   39 ar   
    47   38   42 1    
    48   39   43 1    
@<TRIPOS>SUBSTRUCTURE
     1 UNK         1 GROUP             0       ****    0 ROOT    
@<TRIPOS>MOLECULE
006_c1
111   116    1
SMALL
USER_CHARGES


@<TRIPOS>ATOM
      1 Fe1        -0.1756    1.5994    0.3789 Fe        1 UNK         0.0000 
      2 O2          5.7826   -0.7589    3.7058 O.3       1 UNK         0.0000 
      3 C3          4.9390   -1.7403    4.2410 C.3       1 UNK         0.0000 
      4 C4          3.8762   -2.1506    3.2166 C.3       1 UNK         0.0000 
      5 C5          2.8638   -1.0841    2.8083 C.2       1 UNK         0.0000 
      6 C6          2.9099    0.3313    3.3272 C.3       1 UNK         0.0000 
      7 C7          1.8730   -1.4768    1.9752 C.2       1 UNK         0.0000 
      8 C8          0.7215   -0.6483    1.5157 C.2       1 UNK         0.0000 
      9 O9          0.5519    0.5672    1.7142 O.co2     1 UNK         0.0000 
     10 N10        -0.3137   -1.1414    0.8768 N.am      1 UNK         0.0000 
     11 O11        -1.2156   -0.1794    0.8200 O.co2     1 UNK         0.0000 
     12 C12        -0.5829   -2.4740    0.3679 C.3       1 UNK         0.0000 
     13 C13         0.1568   -2.7894   -0.9588 C.3       1 UNK         0.0000 
     14 C14        -0.4229   -4.1032   -1.5202 C.3       1 UNK         0.0000 
     15 C15         0.1926   -4.7115   -2.8092 C.3       1 UNK         0.0000 
     16 H16         1.2797   -4.8260   -2.6131 H         1 UNK         0.0000 
     17 N17        -0.4272   -6.0374   -3.0244 N.am      1 UNK         0.0000 
     18 C18        -1.8629   -6.1327   -3.2944 C.3       1 UNK         0.0000 
     19 C19         0.3220   -7.1888   -2.9642 C.2       1 UNK         0.0000 
     20 O20         1.5232   -7.1387   -2.7359 O.2       1 UNK         0.0000 
     21 C21        -0.2901   -8.5532   -3.1674 C.3       1 UNK         0.0000 
     22 C22         0.1002   -3.8720   -4.0868 C.2       1 UNK         0.0000 
     23 O23        -0.5118   -4.3131   -5.0511 O.2       1 UNK         0.0000 
     24 O24         0.8392   -2.7350   -4.2257 O.3       1 UNK         0.0000 
     25 C25         1.2118   -2.1888   -5.4559 C.3       1 UNK         0.0000 
     26 C26         0.7408   -0.7363   -5.6223 C.3       1 UNK         0.0000 
     27 C27         1.2214    0.1438   -4.4851 C.2       1 UNK         0.0000 
     28 C28         2.7121    0.2714   -4.2562 C.3       1 UNK         0.0000 
     29 C29         0.2883    0.6842   -3.6720 C.2       1 UNK         0.0000 
     30 C30         0.5299    1.4393   -2.4320 C.2       1 UNK         0.0000 
     31 O31        -0.1147    1.1877   -1.4574 O.co2     1 UNK         0.0000 
     32 N32         1.3251    2.4250   -2.1328 N.am      1 UNK         0.0000 
     33 O33         1.2051    2.5753   -0.8094 O.co2     1 UNK         0.0000 
     34 C34         1.9768    3.3598   -3.0395 C.3       1 UNK         0.0000 
     35 C35         2.7751    4.4365   -2.2768 C.3       1 UNK         0.0000 
     36 C36         3.4251    5.4792   -3.2093 C.3       1 UNK         0.0000 
     37 C37         2.5177    6.6384   -3.7123 C.3       1 UNK         0.0000 
     38 H38         3.1292    7.2208   -4.4362 H         1 UNK         0.0000 
     39 N39         1.3515    6.1428   -4.4180 N.am      1 UNK         0.0000 
     40 C40         0.0690    6.4760   -4.1092 C.2       1 UNK         0.0000 
     41 O41        -0.8413    6.0102   -4.7791 O.2       1 UNK         0.0000 
     42 C42        -0.2755    7.4462   -2.9953 C.3       1 UNK         0.0000 
     43 H43        -0.7887    8.3074   -3.4775 H         1 UNK         0.0000 
     44 N44         0.8934    7.9570   -2.3066 N.am      1 UNK         0.0000 
     45 C45         2.1704    7.6038   -2.5969 C.2       1 UNK         0.0000 
     46 O46         3.0815    8.1157   -1.9623 O.2       1 UNK         0.0000 
     47 C47        -1.2694    6.8559   -1.9665 C.3       1 UNK         0.0000 
     48 C48        -0.6889    5.7081   -1.1308 C.3       1 UNK         0.0000 
     49 C49        -1.7136    5.1742   -0.1133 C.3       1 UNK         0.0000 
     50 N50        -1.1443    4.0544    0.6061 N.am      1 UNK         0.0000 
     51 O51        -1.4454    2.7615    0.4982 O.co2     1 UNK         0.0000 
     52 C52        -0.1995    3.9256    1.4491 C.2       1 UNK         0.0000 
     53 O53        -0.0347    2.6843    1.5082 O.co2     1 UNK         0.0000 
     54 C54         0.5104    5.0313    2.1409 C.2       1 UNK         0.0000 
     55 C55         1.3408    4.9009    3.1958 C.2       1 UNK         0.0000 
     56 C56         1.6453    3.5326    3.7508 C.3       1 UNK         0.0000 
     57 C57         1.8833    6.1919    3.7992 C.3       1 UNK         0.0000 
     58 C58         2.7411    6.0574    5.0595 C.3       1 UNK         0.0000 
     59 O59         3.9273    5.3707    4.7728 O.3       1 UNK         0.0000 
     60 H60         6.3696   -0.4687    4.4517 H         1 UNK         0.0000 
     61 H61         5.5451   -2.6386    4.4922 H         1 UNK         0.0000 
     62 H62         4.4370   -1.3758    5.1665 H         1 UNK         0.0000 
     63 H63         3.3064   -2.9917    3.6707 H         1 UNK         0.0000 
     64 H64         4.3890   -2.5330    2.3070 H         1 UNK         0.0000 
     65 H65         1.9662    0.5640    3.8641 H         1 UNK         0.0000 
     66 H66         3.0449    1.0082    2.4602 H         1 UNK         0.0000 
     67 H67         3.7326    0.5343    4.0337 H         1 UNK         0.0000 
     68 H68        -1.6696   -2.5070    0.1302 H         1 UNK         0.0000 
     69 H69        -0.3987   -3.2390    1.1523 H         1 UNK         0.0000 
     70 H70         1.2491   -2.8760   -0.7788 H         1 UNK         0.0000 
     71 H71        -0.0264   -1.9777   -1.6961 H         1 UNK         0.0000 
     72 H72        -0.2936   -4.8724   -0.7257 H         1 UNK         0.0000 
     73 H73        -1.5118   -3.9541   -1.6722 H         1 UNK         0.0000 
     74 H74        -2.3638   -6.7170   -2.4939 H         1 UNK         0.0000 
     75 H75        -2.0375   -6.6208   -4.2760 H         1 UNK         0.0000 
     76 H76        -2.3499   -5.1372   -3.3404 H         1 UNK         0.0000 
     77 H77        -0.7417   -8.6232   -4.1788 H         1 UNK         0.0000 
     78 H78        -1.0691   -8.7403   -2.3992 H         1 UNK         0.0000 
     79 H79         0.4806   -9.3486   -3.0782 H         1 UNK         0.0000 
     80 H80         2.3167   -2.2321   -5.5324 H         1 UNK         0.0000 
     81 H81         0.8253   -2.7805   -6.3147 H         1 UNK         0.0000 
     82 H82         1.1170   -0.3309   -6.5855 H         1 UNK         0.0000 
     83 H83        -0.3703   -0.7530   -5.6831 H         1 UNK         0.0000 
     84 H84         2.9695    0.7947   -3.3196 H         1 UNK         0.0000 
     85 H85         3.1837    0.7757   -5.1237 H         1 UNK         0.0000 
     86 H86         3.1676   -0.7305   -4.1329 H         1 UNK         0.0000 
     87 H87        -0.7506    0.4144   -3.8423 H         1 UNK         0.0000 
     88 H88         1.1785    3.8213   -3.6460 H         1 UNK         0.0000 
     89 H89         2.6676    2.8548   -3.7339 H         1 UNK         0.0000 
     90 H90         2.1704    4.9519   -1.5031 H         1 UNK         0.0000 
     91 H91         3.5941    3.8898   -1.7601 H         1 UNK         0.0000 
     92 H92         3.8828    4.9460   -4.0710 H         1 UNK         0.0000 
     93 H93         4.2666    5.9530   -2.6577 H         1 UNK         0.0000 
     94 H94         1.5157    5.5119   -5.2185 H         1 UNK         0.0000 
     95 H95         0.7367    8.6479   -1.5556 H         1 UNK         0.0000 
     96 H96        -1.5728    7.6699   -1.2717 H         1 UNK         0.0000 
     97 H97        -2.1832    6.5100   -2.4982 H         1 UNK         0.0000 
     98 H98        -0.3949    4.8808   -1.8124 H         1 UNK         0.0000 
     99 H99         0.2135    6.0634   -0.5923 H         1 UNK         0.0000 
    100 H100       -2.5974    4.8159   -0.6847 H         1 UNK         0.0000 
    101 H101       -2.0437    5.9593    0.5994 H         1 UNK         0.0000 
    102 H102        2.1487    2.9546    2.9580 H         1 UNK         0.0000 
    103 H103        0.7017    3.0266    4.0468 H         1 UNK         0.0000 
    104 H104        2.3026    3.5348    4.6375 H         1 UNK         0.0000 
    105 H105        1.0093    6.8234    4.0739 H         1 UNK         0.0000 
    106 H106        2.4707    6.7350    3.0263 H         1 UNK         0.0000 
    107 H107        2.1562    5.5329    5.8490 H         1 UNK         0.0000 
    108 H108        2.9925    7.0807    5.4166 H         1 UNK         0.0000 
    109 H109        4.3943    5.2621    5.6417 H         1 UNK         0.0000 
    110 H110        0.3814    6.0496    1.8049 H         1 UNK         0.0000 
    111 H111        1.8694   -2.4801    1.5755 H         1 UNK         0.0000 
@<TRIPOS>BOND
     1    1    9 nc   
     2    1   11 nc   
     3    1   31 nc   
     4    1   33 nc   
     5    1   51 nc   
     6    1   53 nc   
     7    2    3 1    
     8    2   60 1    
     9    3   61 1    
    10    3   62 1    
    11    3    4 1    
    12    4   63 1    
    13    4    5 1    
    14    4   64 1    
    15    5    7 2    
    16    5    6 1    
    17    6   65 1    
    18    6   67 1    
    19    6   66 1    
    20    7    8 1    
    21    7  111 1    
    22    8    9 2    
    23    8   10 am   BACKBONE|DICT|INTERRES
    24   10   11 1    
    25   10   12 1    
    26   12   69 1    
    27   12   13 1    
    28   12   68 1    
    29   13   70 1    
    30   13   14 1    
    31   13   71 1    
    32   14   72 1    
    33   14   15 1    
    34   14   73 1    
    35   15   16 1    
    36   15   17 1    
    37   15   22 1    
    38   17   19 am   BACKBONE|DICT|INTERRES
    39   17   18 1    
    40   18   74 1    
    41   18   75 1    
    42   18   76 1    
    43   19   20 2    
    44   19   21 1    
    45   21   79 1    
    46   21   78 1    
    47   21   77 1    
    48   22   23 2    
    49   22   24 1    
    50   24   25 1    
    51   25   26 1    
    52   25   80 1    
    53   25   81 1    
    54   26   27 1    
    55   26   82 1    
    56   26   83 1    
    57   27   28 1    
    58   27   29 2    
    59   28   86 1    
    60   28   84 1    
    61   28   85 1    
    62   29   30 1    
    63   29   87 1    
    64   30   32 am   BACKBONE|DICT|INTERRES
    65   30   31 2    
    66   32   33 1    
    67   32   34 1    
    68   34   35 1    
    69   34   88 1    
    70   34   89 1    
    71   35   91 1    
    72   35   90 1    
    73   35   36 1    
    74   36   93 1    
    75   36   37 1    
    76   36   92 1    
    77   37   38 1    
    78   37   45 1    
    79   37   39 1    
    80   39   40 am   BACKBONE|DICT|INTERRES
    81   39   94 1    
    82   40   42 1    
    83   40   41 2    
    84   42   43 1    
    85   42   44 1    
    86   42   47 1    
    87   44   95 1    
    88   44   45 am   BACKBONE|DICT|INTERRES
    89   45   46 2    
    90   47   96 1    
    91   47   48 1    
    92   47   97 1    
    93   48   99 1    
    94   48   49 1    
    95   48   98 1    
    96   49  101 1    
    97   49   50 1    
    98   49  100 1    
    99   50   52 am   BACKBONE|DICT|INTERRES
   100   50   51 1    
   101   52   53 2    
   102   52   54 1    
   103   54   55 2    
   104   54  110 1    
   105   55   56 1    
   106   55   57 1    
   107   56  103 1    
   108   56  104 1    
   109   56  102 1    
   110   57  105 1    
   111   57   58 1    
   112   57  106 1    
   113   58  108 1    
   114   58  107 1    
   115   58   59 1    
   116   59  109 1    
@<TRIPOS>SUBSTRUCTURE
     1 UNK         1 GROUP             0       ****    0 ROOT    
@<TRIPOS>MOLECULE
006_c2
337   342    1
SMALL
USER_CHARGES


@<TRIPOS>ATOM
      1 Fe1         0.0000    0.0000    0.0000 Fe        1 UNK         0.0000 
      2 O2          0.6367    8.4299    1.1323 O.3       1 UNK         0.0000 
      3 C3          0.2497    7.1807    0.6283 C.3       1 UNK         0.0000 
      4 C4          0.9208    6.0588    1.4308 C.3       1 UNK         0.0000 
      5 C5          0.5175    4.6776    0.9464 C.2       1 UNK         0.0000 
      6 C6         -0.9593    4.3284    1.0471 C.3       1 UNK         0.0000 
      7 C7          1.4764    3.7943    0.5157 C.2       1 UNK         0.0000 
      8 C8          1.2041    2.3589    0.1281 C.2       1 UNK         0.0000 
      9 O9          0.0000    2.0800    0.0000 O.co2     1 UNK         0.0000 
     10 N10         2.2396    1.3900   -0.0810 N.am      1 UNK         0.0000 
     11 O11         2.0800   -0.0000    0.0000 O.co2     1 UNK         0.0000 
     12 C12         3.3604    1.8697   -0.8778 C.3       1 UNK         0.0000 
     13 C13         4.7467    1.2763   -0.5956 C.3       1 UNK         0.0000 
     14 C14         5.6754    1.9109   -1.6590 C.3       1 UNK         0.0000 
     15 C15         7.1954    1.6461   -1.5979 C.3       1 UNK         0.0000 
     16 H16         7.4886    1.8528   -0.5458 H         1 UNK         0.0000 
     17 N17         7.8195    2.6213   -2.5140 N.am      1 UNK         0.0000 
     18 C18         8.5902    3.7228   -1.9447 C.3       1 UNK         0.0000 
     19 C19         7.6184    2.5587   -3.8797 C.2       1 UNK         0.0000 
     20 O20         6.9764    1.6413   -4.3709 O.2       1 UNK         0.0000 
     21 C21         8.1595    3.6055   -4.8207 C.3       1 UNK         0.0000 
     22 C22         7.5986    0.1975   -1.9007 C.2       1 UNK         0.0000 
     23 O23         7.0285   -0.7081   -1.3135 O.2       1 UNK         0.0000 
     24 O24         8.5591   -0.1313   -2.8114 O.3       1 UNK         0.0000 
     25 C25         9.8680    0.3216   -2.7580 C.3       1 UNK         0.0000 
     26 C26        10.5809    0.0883   -4.1018 C.3       1 UNK         0.0000 
     27 C27        11.9734    0.7202   -4.1128 C.2       1 UNK         0.0000 
     28 C28        12.0681    2.2183   -3.9278 C.3       1 UNK         0.0000 
     29 C29        13.1575    0.0770   -4.2946 C.2       1 UNK         0.0000 
     30 C30        13.4339   -1.3712   -4.5454 C.2       1 UNK         0.0000 
     31 O31        12.5139   -2.1652   -4.6612 O.2       1 UNK         0.0000 
     32 N32        14.7327   -1.8050   -4.6526 N.am      1 UNK         0.0000 
     33 O33        15.7427   -0.9317   -4.4951 O.3       1 UNK         0.0000 
     34 C34        15.0797   -3.1956   -4.9144 C.3       1 UNK         0.0000 
     35 C35        15.9429   -3.3112   -6.1833 C.3       1 UNK         0.0000 
     36 C36        16.3389   -4.7734   -6.4260 C.3       1 UNK         0.0000 
     37 C37        17.2137   -4.9843   -7.6754 C.3       1 UNK         0.0000 
     38 H38        16.6837   -4.6168   -8.5824 H         1 UNK         0.0000 
     39 N39        18.4818   -4.2508   -7.6158 N.am      1 UNK         0.0000 
     40 C40        19.6720   -4.8760   -7.3998 C.2       1 UNK         0.0000 
     41 O41        20.7248   -4.2669   -7.5209 O.2       1 UNK         0.0000 
     42 C42        19.6411   -6.2978   -6.9191 C.3       1 UNK         0.0000 
     43 H43        19.2409   -6.1998   -5.8848 H         1 UNK         0.0000 
     44 N44        18.6444   -7.0443   -7.6572 N.am      1 UNK         0.0000 
     45 C45        17.4406   -6.4722   -7.9211 C.2       1 UNK         0.0000 
     46 O46        16.5424   -7.1460   -8.4036 O.2       1 UNK         0.0000 
     47 C47        20.9889   -7.0393   -6.7932 C.3       1 UNK         0.0000 
     48 C48        21.6722   -7.3951   -8.1289 C.3       1 UNK         0.0000 
     49 C49        22.9066   -8.2712   -7.8506 C.3       1 UNK         0.0000 
     50 N50        23.4892   -8.8111   -9.0742 N.am      1 UNK         0.0000 
     51 O51        22.6996   -9.5514   -9.8718 O.3       1 UNK         0.0000 
     52 C52        24.8175   -8.6656   -9.3821 C.2       1 UNK         0.0000 
     53 O53        25.5441   -8.0132   -8.6464 O.2       1 UNK         0.0000 
     54 C54        25.3921   -9.3551  -10.5835 C.2       1 UNK         0.0000 
     55 C55        26.7032   -9.4034  -10.9386 C.2       1 UNK         0.0000 
     56 C56        27.7874   -8.7242  -10.1345 C.3       1 UNK         0.0000 
     57 C57        27.1109  -10.2036  -12.1650 C.3       1 UNK         0.0000 
     58 C58        27.7510   -9.3262  -13.2456 C.3       1 UNK         0.0000 
     59 O59        28.1368  -10.1127  -14.3402 O.3       1 UNK         0.0000 
     60 H60         0.1038    8.5803    1.9578 H         1 UNK         0.0000 
     61 H61         0.5600    7.1148   -0.4350 H         1 UNK         0.0000 
     62 H62        -0.8606    7.1049    0.6450 H         1 UNK         0.0000 
     63 H63         0.6217    6.1491    2.4985 H         1 UNK         0.0000 
     64 H64         2.0213    6.2013    1.3762 H         1 UNK         0.0000 
     65 H65        -1.3789    4.1103    0.0425 H         1 UNK         0.0000 
     66 H66        -1.1032    3.4574    1.7219 H         1 UNK         0.0000 
     67 H67        -1.5575    5.1531    1.4848 H         1 UNK         0.0000 
     68 H68         3.1030    1.6082   -1.9282 H         1 UNK         0.0000 
     69 H69         3.4391    2.9709   -0.8772 H         1 UNK         0.0000 
     70 H70         5.0746    1.5505    0.4293 H         1 UNK         0.0000 
     71 H71         4.7198    0.1717   -0.6993 H         1 UNK         0.0000 
     72 H72         5.5747    3.0140   -1.5335 H         1 UNK         0.0000 
     73 H73         5.2873    1.6506   -2.6658 H         1 UNK         0.0000 
     74 H74         9.6248    3.7214   -2.3377 H         1 UNK         0.0000 
     75 H75         8.1065    4.6898   -2.1975 H         1 UNK         0.0000 
     76 H76         8.6514    3.6659   -0.8382 H         1 UNK         0.0000 
     77 H77         7.7377    4.5984   -4.5702 H         1 UNK         0.0000 
     78 H78         9.2648    3.6521   -4.7615 H         1 UNK         0.0000 
     79 H79         7.8849    3.3664   -5.8698 H         1 UNK         0.0000 
     80 H80        10.4067   -0.2018   -1.9393 H         1 UNK         0.0000 
     81 H81         9.8905    1.3912   -2.5161 H         1 UNK         0.0000 
     82 H82        10.5764   -0.9957   -4.2997 H         1 UNK         0.0000 
     83 H83         9.9898    0.5701   -4.9108 H         1 UNK         0.0000 
     84 H84        11.0775    2.6911   -3.8361 H         1 UNK         0.0000 
     85 H85        12.6561    2.4534   -3.0153 H         1 UNK         0.0000 
     86 H86        12.5637    2.6760   -4.8103 H         1 UNK         0.0000 
     87 H87        14.0404    0.7096   -4.2642 H         1 UNK         0.0000 
     88 H88        15.9684   -0.9682   -3.5296 H         1 UNK         0.0000 
     89 H89        15.6580   -3.5812   -4.0472 H         1 UNK         0.0000 
     90 H90        14.1762   -3.8328   -5.0293 H         1 UNK         0.0000 
     91 H91        16.8610   -2.6979   -6.0579 H         1 UNK         0.0000 
     92 H92        15.3714   -2.9283   -7.0569 H         1 UNK         0.0000 
     93 H93        16.8893   -5.1570   -5.5388 H         1 UNK         0.0000 
     94 H94        15.4060   -5.3685   -6.5428 H         1 UNK         0.0000 
     95 H95        18.4769   -3.2462   -7.8511 H         1 UNK         0.0000 
     96 H96        18.8054   -8.0331   -7.9028 H         1 UNK         0.0000 
     97 H97        21.6836   -6.4431   -6.1617 H         1 UNK         0.0000 
     98 H98        20.7750   -7.9891   -6.2545 H         1 UNK         0.0000 
     99 H99        20.9622   -7.9788   -8.7508 H         1 UNK         0.0000 
    100 H100       21.9623   -6.4794   -8.6872 H         1 UNK         0.0000 
    101 H101       22.5859   -9.1402   -7.2356 H         1 UNK         0.0000 
    102 H102       23.6406   -7.6920   -7.2495 H         1 UNK         0.0000 
    103 H103       22.7418  -10.4707   -9.5006 H         1 UNK         0.0000 
    104 H104       24.6888   -9.8928  -11.2116 H         1 UNK         0.0000 
    105 H105       27.6219   -7.6267  -10.1198 H         1 UNK         0.0000 
    106 H106       28.7927   -8.9154  -10.5628 H         1 UNK         0.0000 
    107 H107       27.7959   -9.1220   -9.0980 H         1 UNK         0.0000 
    108 H108       26.2332  -10.7134  -12.6202 H         1 UNK         0.0000 
    109 H109       27.8286  -10.9927  -11.8521 H         1 UNK         0.0000 
    110 H110       28.6571   -8.8201  -12.8546 H         1 UNK         0.0000 
    111 H111       27.0453   -8.5295  -13.5735 H         1 UNK         0.0000 
    112 H112       27.3115  -10.3117  -14.8551 H         1 UNK         0.0000 
    113 O113        1.1457   -8.4148    1.0057 O.3       1 UNK         0.0000 
    114 C114        0.6296   -7.1976    0.5412 C.3       1 UNK         0.0000 
    115 C115        1.4142   -6.0310    1.1470 C.3       1 UNK         0.0000 
    116 C116        0.9178   -4.6851    0.6555 C.2       1 UNK         0.0000 
    117 C117        1.0437   -4.4052   -0.8315 C.3       1 UNK         0.0000 
    118 C118        0.4544   -3.7668    1.5561 C.2       1 UNK         0.0000 
    119 C119        0.0708   -2.3511    1.2189 C.2       1 UNK         0.0000 
    120 O120        0.0000   -2.0800    0.0000 O.co2     1 UNK         0.0000 
    121 N121       -0.1615   -1.3747    2.2359 N.am      1 UNK         0.0000 
    122 O122        0.0000    0.0000    2.0800 O.co2     1 UNK         0.0000 
    123 C123       -0.9000   -1.8115    3.4139 C.3       1 UNK         0.0000 
    124 C124       -0.3458   -1.4097    4.7890 C.3       1 UNK         0.0000 
    125 C125       -1.3235   -2.0298    5.8156 C.3       1 UNK         0.0000 
    126 C126       -1.0831   -1.8161    7.3289 C.3       1 UNK         0.0000 
    127 H127       -0.0008   -2.0020    7.4992 H         1 UNK         0.0000 
    128 N128       -1.8926   -2.8319    8.0323 N.am      1 UNK         0.0000 
    129 C129       -1.2035   -3.9034    8.7452 C.3       1 UNK         0.0000 
    130 C130       -3.2728   -2.8349    7.9660 C.2       1 UNK         0.0000 
    131 O131       -3.8693   -1.9401    7.3837 O.2       1 UNK         0.0000 
    132 C132       -4.1059   -3.9308    8.5800 C.3       1 UNK         0.0000 
    133 C133       -1.3814   -0.3839    7.7949 C.2       1 UNK         0.0000 
    134 O134       -0.8568    0.5455    7.2030 O.2       1 UNK         0.0000 
    135 O135       -2.2448   -0.0912    8.8103 O.3       1 UNK         0.0000 
    136 C136       -2.1168   -0.5443   10.1137 C.3       1 UNK         0.0000 
    137 C137       -3.4400   -0.3595   10.8809 C.3       1 UNK         0.0000 
    138 C138       -3.3737   -0.9713   12.2808 C.2       1 UNK         0.0000 
    139 C139       -3.1100   -2.4565   12.3896 C.3       1 UNK         0.0000 
    140 C140       -3.5500   -0.3204   13.4622 C.2       1 UNK         0.0000 
    141 C141       -3.8660    1.1173   13.7301 C.2       1 UNK         0.0000 
    142 O142       -4.0601    1.8906   12.8058 O.2       1 UNK         0.0000 
    143 N143       -3.9426    1.5643   15.0267 N.am      1 UNK         0.0000 
    144 O144       -3.6979    0.7154   16.0403 O.3       1 UNK         0.0000 
    145 C145       -4.2598    2.9452   15.3675 C.3       1 UNK         0.0000 
    146 C146       -5.4906    3.0098   16.2893 C.3       1 UNK         0.0000 
    147 C147       -5.7857    4.4622   16.6870 C.3       1 UNK         0.0000 
    148 C148       -6.9952    4.6168   17.6279 C.3       1 UNK         0.0000 
    149 H149       -7.9100    4.2026   17.1482 H         1 UNK         0.0000 
    150 N150       -6.8306    3.8929   18.8923 N.am      1 UNK         0.0000 
    151 C151       -6.5679    4.5324   20.0655 C.2       1 UNK         0.0000 
    152 O152       -6.5953    3.9232   21.1249 O.2       1 UNK         0.0000 
    153 C153       -6.1561    5.9750   20.0013 C.3       1 UNK         0.0000 
    154 H154       -5.1446    5.9260   19.5386 H         1 UNK         0.0000 
    155 N155       -6.9904    6.6809   19.0518 N.am      1 UNK         0.0000 
    156 C156       -7.3001    6.0920   17.8677 C.2       1 UNK         0.0000 
    157 O157       -7.8717    6.7365   17.0004 O.2       1 UNK         0.0000 
    158 C158       -5.9875    6.7263   21.3385 C.3       1 UNK         0.0000 
    159 C159       -7.2981    7.0034   22.1005 C.3       1 UNK         0.0000 
    160 C160       -7.0012    7.8869   23.3241 C.3       1 UNK         0.0000 
    161 N161       -8.2217    8.3316   23.9876 N.am      1 UNK         0.0000 
    162 O162       -9.1147    9.0250   23.2602 O.3       1 UNK         0.0000 
    163 C163       -8.4409    8.1389   25.3271 C.2       1 UNK         0.0000 
    164 O164       -7.6190    7.5303   25.9963 O.2       1 UNK         0.0000 
    165 C165       -9.6584    8.7193   25.9829 C.2       1 UNK         0.0000 
    166 C166       -9.9467    8.7044   27.3111 C.2       1 UNK         0.0000 
    167 C167       -9.0376    8.0611   28.3324 C.3       1 UNK         0.0000 
    168 C168      -11.2095    9.3925   27.8030 C.3       1 UNK         0.0000 
    169 C169      -12.1835    8.4127   28.4654 C.3       1 UNK         0.0000 
    170 O170      -13.3172    9.0962   28.9269 O.3       1 UNK         0.0000 
    171 H171        1.9811   -8.5814    0.4938 H         1 UNK         0.0000 
    172 H172       -0.4351   -7.1232    0.8453 H         1 UNK         0.0000 
    173 H173        0.6527   -7.1850   -0.5711 H         1 UNK         0.0000 
    174 H174        2.4868   -6.1236    0.8663 H         1 UNK         0.0000 
    175 H175        1.3513   -6.1074    2.2542 H         1 UNK         0.0000 
    176 H176        0.0442   -4.2145   -1.2758 H         1 UNK         0.0000 
    177 H177        1.7132   -3.5354   -1.0042 H         1 UNK         0.0000 
    178 H178        1.4985   -5.2560   -1.3784 H         1 UNK         0.0000 
    179 H179       -1.9086   -1.3494    3.3281 H         1 UNK         0.0000 
    180 H180       -1.0952   -2.9009    3.3946 H         1 UNK         0.0000 
    181 H181        0.6750   -1.8225    4.9365 H         1 UNK         0.0000 
    182 H182       -0.3147   -0.3034    4.8676 H         1 UNK         0.0000 
    183 H183       -1.2630   -3.1304    5.6489 H         1 UNK         0.0000 
    184 H184       -2.3550   -1.7057    5.5668 H         1 UNK         0.0000 
    185 H185       -1.5005   -3.9129    9.8130 H         1 UNK         0.0000 
    186 H186       -1.4529   -4.8841    8.2887 H         1 UNK         0.0000 
    187 H187       -0.1000   -3.7943    8.7094 H         1 UNK         0.0000 
    188 H188       -3.8485   -4.9048    8.1151 H         1 UNK         0.0000 
    189 H189       -3.9397   -3.9912    9.6701 H         1 UNK         0.0000 
    190 H190       -5.1876   -3.7430    8.4066 H         1 UNK         0.0000 
    191 H191       -1.2984    0.0120   10.6185 H         1 UNK         0.0000 
    192 H192       -1.8334   -1.6045   10.1217 H         1 UNK         0.0000 
    193 H193       -3.6846    0.7150   10.8743 H         1 UNK         0.0000 
    194 H194       -4.2503   -0.8815   10.3269 H         1 UNK         0.0000 
    195 H195       -3.0163   -2.9389   11.4039 H         1 UNK         0.0000 
    196 H196       -2.1721   -2.6361   12.9564 H         1 UNK         0.0000 
    197 H197       -3.9551   -2.9507   12.9149 H         1 UNK         0.0000 
    198 H198       -3.4584   -0.9378   14.3517 H         1 UNK         0.0000 
    199 H199       -2.7279    0.8073   16.2272 H         1 UNK         0.0000 
    200 H200       -3.3876    3.3822   15.9007 H         1 UNK         0.0000 
    201 H201       -4.4479    3.5630   14.4629 H         1 UNK         0.0000 
    202 H202       -5.2904    2.4136   17.2052 H         1 UNK         0.0000 
    203 H203       -6.3710    2.5784   15.7649 H         1 UNK         0.0000 
    204 H204       -4.8908    4.8942   17.1871 H         1 UNK         0.0000 
    205 H205       -5.9811    5.0430   15.7582 H         1 UNK         0.0000 
    206 H206       -7.0219    2.8790   18.9038 H         1 UNK         0.0000 
    207 H207       -7.2757    7.6562   19.2277 H         1 UNK         0.0000 
    208 H208       -5.2834    6.1661   21.9923 H         1 UNK         0.0000 
    209 H209       -5.5167    7.7046   21.0956 H         1 UNK         0.0000 
    210 H210       -7.9951    7.5517   21.4328 H         1 UNK         0.0000 
    211 H211       -7.7825    6.0549   22.4167 H         1 UNK         0.0000 
    212 H212       -6.4665    8.7982   22.9779 H         1 UNK         0.0000 
    213 H213       -6.3186    7.3413   24.0113 H         1 UNK         0.0000 
    214 H214       -8.8082    9.9674   23.3004 H         1 UNK         0.0000 
    215 H215      -10.3619    9.2235   25.3286 H         1 UNK         0.0000 
    216 H216       -8.9472    6.9731   28.1325 H         1 UNK         0.0000 
    217 H217       -9.4271    8.1908   29.3632 H         1 UNK         0.0000 
    218 H218       -8.0357    8.5386   28.3020 H         1 UNK         0.0000 
    219 H219      -11.7477    9.8878   26.9649 H         1 UNK         0.0000 
    220 H220      -10.9242   10.1839   28.5296 H         1 UNK         0.0000 
    221 H221      -11.7090    7.9148   29.3355 H         1 UNK         0.0000 
    222 H222      -12.4812    7.6115   27.7511 H         1 UNK         0.0000 
    223 H223      -13.8886    9.2713   28.1340 H         1 UNK         0.0000 
    224 O224       -8.4165    1.1211   -1.1943 O.3       1 UNK         0.0000 
    225 C225       -7.2184    0.6088   -0.6783 C.3       1 UNK         0.0000 
    226 C226       -6.0307    1.3979   -1.2326 C.3       1 UNK         0.0000 
    227 C227       -4.7005    0.8971   -0.7008 C.2       1 UNK         0.0000 
    228 C228       -4.4587    1.0070    0.7919 C.3       1 UNK         0.0000 
    229 C229       -3.7603    0.4437   -1.5791 C.2       1 UNK         0.0000 
    230 C230       -2.3497    0.0582   -1.2233 C.2       1 UNK         0.0000 
    231 O231       -2.0800    0.0000    0.0000 O.co2     1 UNK         0.0000 
    232 N232       -1.3713   -0.1642   -2.2410 N.am      1 UNK         0.0000 
    233 O233        0.0000    0.0000   -2.0800 O.co2     1 UNK         0.0000 
    234 C234       -1.8025   -0.8282   -3.4666 C.3       1 UNK         0.0000 
    235 C235       -1.4573   -0.1370   -4.7947 C.3       1 UNK         0.0000 
    236 C236       -2.1122   -1.0032   -5.8973 C.3       1 UNK         0.0000 
    237 C237       -1.9254   -0.6067   -7.3826 C.3       1 UNK         0.0000 
    238 H238       -2.0756    0.4931   -7.4361 H         1 UNK         0.0000 
    239 N239       -2.9816   -1.2973   -8.1505 N.am      1 UNK         0.0000 
    240 C240       -4.0251   -0.4939   -8.7817 C.3       1 UNK         0.0000 
    241 C241       -3.0461   -2.6751   -8.2248 C.2       1 UNK         0.0000 
    242 O242       -2.1763   -3.3668   -7.7146 O.2       1 UNK         0.0000 
    243 C243       -4.1817   -3.3909   -8.9113 C.3       1 UNK         0.0000 
    244 C244       -0.5121   -0.9035   -7.9029 C.2       1 UNK         0.0000 
    245 O245        0.4424   -0.4591   -7.2857 O.2       1 UNK         0.0000 
    246 O246       -0.2610   -1.6949   -8.9851 O.3       1 UNK         0.0000 
    247 C247       -0.7154   -1.4600  -10.2727 C.3       1 UNK         0.0000 
    248 C248       -0.5951   -2.7423  -11.1185 C.3       1 UNK         0.0000 
    249 C249       -1.1799   -2.5664  -12.5201 C.2       1 UNK         0.0000 
    250 C250       -2.6432   -2.2012  -12.6341 C.3       1 UNK         0.0000 
    251 C251       -0.5216   -2.7285  -13.7006 C.2       1 UNK         0.0000 
    252 C252        0.8978   -3.1259  -13.9652 C.2       1 UNK         0.0000 
    253 O253        1.6432   -3.4103  -13.0413 O.2       1 UNK         0.0000 
    254 N254        1.3600   -3.1723  -15.2580 N.am      1 UNK         0.0000 
    255 O255        0.5438   -2.8300  -16.2702 O.3       1 UNK         0.0000 
    256 C256        2.7254   -3.5561  -15.5948 C.3       1 UNK         0.0000 
    257 C257        2.7348   -4.7412  -16.5769 C.3       1 UNK         0.0000 
    258 C258        4.1745   -5.0943  -16.9759 C.3       1 UNK         0.0000 
    259 C259        4.2742   -6.2549  -17.9823 C.3       1 UNK         0.0000 
    260 H260        3.8083   -7.1726  -17.5595 H         1 UNK         0.0000 
    261 N261        3.5717   -5.9793  -19.2392 N.am      1 UNK         0.0000 
    262 C262        4.2306   -5.6855  -20.3924 C.2       1 UNK         0.0000 
    263 O263        3.6264   -5.6217  -21.4530 O.2       1 UNK         0.0000 
    264 C264        5.6931   -5.3591  -20.3018 C.3       1 UNK         0.0000 
    265 H265        5.6985   -4.3742  -19.7828 H         1 UNK         0.0000 
    266 N266        6.3457   -6.2824  -19.3979 N.am      1 UNK         0.0000 
    267 C267        5.7325   -6.6244  -18.2331 C.2       1 UNK         0.0000 
    268 O268        6.3405   -7.2763  -17.3975 O.2       1 UNK         0.0000 
    269 C269        6.4582   -5.1587  -21.6269 C.3       1 UNK         0.0000 
    270 C270        6.6520   -6.4362  -22.4666 C.3       1 UNK         0.0000 
    271 C271        7.5430   -6.1234  -23.6808 C.3       1 UNK         0.0000 
    272 N272        7.8925   -7.3283  -24.4254 N.am      1 UNK         0.0000 
    273 O273        8.5319   -8.3103  -23.7664 O.3       1 UNK         0.0000 
    274 C274        7.6590   -7.4540  -25.7706 C.2       1 UNK         0.0000 
    275 O275        7.0962   -6.5540  -26.3768 O.2       1 UNK         0.0000 
    276 C276        8.1348   -8.6700  -26.5080 C.2       1 UNK         0.0000 
    277 C277        8.0659   -8.8809  -27.8488 C.2       1 UNK         0.0000 
    278 C278        7.4661   -7.8713  -28.7999 C.3       1 UNK         0.0000 
    279 C279        8.6444  -10.1609  -28.4289 C.3       1 UNK         0.0000 
    280 C280        7.5756  -11.0211  -29.1111 C.3       1 UNK         0.0000 
    281 O281        8.1579  -12.1757  -29.6527 O.3       1 UNK         0.0000 
    282 H282       -8.5940    1.9700   -0.7094 H         1 UNK         0.0000 
    283 H283       -7.1276   -0.4546   -0.9829 H         1 UNK         0.0000 
    284 H284       -7.2517    0.6317    0.4333 H         1 UNK         0.0000 
    285 H285       -6.1333    2.4685   -0.9489 H         1 UNK         0.0000 
    286 H286       -6.0702    1.3438   -2.3426 H         1 UNK         0.0000 
    287 H287       -4.2741    0.0027    1.2277 H         1 UNK         0.0000 
    288 H288       -3.5955    1.6770    0.9932 H         1 UNK         0.0000 
    289 H289       -5.3270    1.4519    1.3190 H         1 UNK         0.0000 
    290 H290       -1.3089   -1.8253   -3.4773 H         1 UNK         0.0000 
    291 H291       -2.8828   -1.0651   -3.4406 H         1 UNK         0.0000 
    292 H292       -1.8837    0.8885   -4.8245 H         1 UNK         0.0000 
    293 H293       -0.3548   -0.0830   -4.9054 H         1 UNK         0.0000 
    294 H294       -3.2073   -0.9510   -5.6958 H         1 UNK         0.0000 
    295 H295       -1.7931   -2.0575   -5.7637 H         1 UNK         0.0000 
    296 H296       -4.0511   -0.6819   -9.8742 H         1 UNK         0.0000 
    297 H297       -5.0144   -0.7444   -8.3444 H         1 UNK         0.0000 
    298 H298       -3.8682    0.5951   -8.6378 H         1 UNK         0.0000 
    299 H299       -5.1413   -3.1394   -8.4141 H         1 UNK         0.0000 
    300 H300       -4.2390   -3.1096   -9.9780 H         1 UNK         0.0000 
    301 H301       -4.0428   -4.4919   -8.8521 H         1 UNK         0.0000 
    302 H302       -0.1197   -0.6404  -10.7284 H         1 UNK         0.0000 
    303 H303       -1.7614   -1.1250  -10.2542 H         1 UNK         0.0000 
    304 H304        0.4638   -3.0464  -11.1156 H         1 UNK         0.0000 
    305 H305       -1.1676   -3.5525  -10.6169 H         1 UNK         0.0000 
    306 H306       -3.1346   -2.1182  -11.6512 H         1 UNK         0.0000 
    307 H307       -2.7524   -1.2294  -13.1603 H         1 UNK         0.0000 
    308 H308       -3.1828   -2.9876  -13.2042 H         1 UNK         0.0000 
    309 H309       -1.1172   -2.5543  -14.5926 H         1 UNK         0.0000 
    310 H310        0.6995   -1.8607  -16.4126 H         1 UNK         0.0000 
    311 H311        3.2213   -2.6866  -16.0783 H         1 UNK         0.0000 
    312 H312        3.3163   -3.8243  -14.6925 H         1 UNK         0.0000 
    313 H313        2.1628   -4.4610  -17.4874 H         1 UNK         0.0000 
    314 H314        2.2485   -5.6222  -16.1042 H         1 UNK         0.0000 
    315 H315        4.6602   -4.1987  -17.4223 H         1 UNK         0.0000 
    316 H316        4.7332   -5.3726  -16.0549 H         1 UNK         0.0000 
    317 H317        2.5521   -6.1125  -19.2651 H         1 UNK         0.0000 
    318 H318        7.3057   -6.6107  -19.5875 H         1 UNK         0.0000 
    319 H319        5.9423   -4.3844  -22.2369 H         1 UNK         0.0000 
    320 H320        7.4634   -4.7637  -21.3605 H         1 UNK         0.0000 
    321 H321        7.1594   -7.2034  -21.8452 H         1 UNK         0.0000 
    322 H322        5.6740   -6.8420  -22.8028 H         1 UNK         0.0000 
    323 H323        8.4923   -5.6740  -23.3157 H         1 UNK         0.0000 
    324 H324        7.0387   -5.3644  -24.3173 H         1 UNK         0.0000 
    325 H325        9.4934   -8.0690  -23.8089 H         1 UNK         0.0000 
    326 H326        8.6011   -9.4447  -25.9075 H         1 UNK         0.0000 
    327 H327        6.3933   -7.7130  -28.5632 H         1 UNK         0.0000 
    328 H328        7.5399   -8.2104  -29.8537 H         1 UNK         0.0000 
    329 H329        8.0175   -6.9103  -28.7294 H         1 UNK         0.0000 
    330 H330        9.1200  -10.7800  -27.6365 H         1 UNK         0.0000 
    331 H331        9.4351   -9.8946  -29.1633 H         1 UNK         0.0000 
    332 H332        7.0916  -10.4636  -29.9388 H         1 UNK         0.0000 
    333 H333        6.7738  -11.2967  -28.3887 H         1 UNK         0.0000 
    334 H334        8.3065  -12.8027  -28.8974 H         1 UNK         0.0000 
    335 H335       -4.0056    0.3373   -2.6255 H         1 UNK         0.0000 
    336 H336        2.5058    4.1113    0.4359 H         1 UNK         0.0000 
    337 H337        0.3414   -4.0389    2.5951 H         1 UNK         0.0000 
@<TRIPOS>BOND
     1    1    9 nc   
     2    1   11 nc   
     3    1  120 nc   
     4    1  122 nc   
     5    1  231 nc   
     6    1  233 nc   
     7    2   60 1    
     8    2    3 1    
     9    3   62 1    
    10    3    4 1    
    11    3   61 1    
    12    4   63 1    
    13    4    5 1    
    14    4   64 1    
    15    5    7 2    
    16    5    6 1    
    17    6   67 1    
    18    6   66 1    
    19    6   65 1    
    20    7    8 1    
    21    7  336 1    
    22    8    9 2    
    23    8   10 am   BACKBONE|DICT|INTERRES
    24   10   11 1    
    25   10   12 1    
    26   12   69 1    
    27   12   13 1    
    28   12   68 1    
    29   13   70 1    
    30   13   14 1    
    31   13   71 1    
    32   14   15 1    
    33   14   72 1    
    34   14   73 1    
    35   15   16 1    
    36   15   17 1    
    37   15   22 1    
    38   17   18 1    
    39   17   19 am   BACKBONE|DICT|INTERRES
    40   18   76 1    
    41   18   74 1    
    42   18   75 1    
    43   19   20 2    
    44   19   21 1    
    45   21   78 1    
    46   21   77 1    
    47   21   79 1    
    48   22   23 2    
    49   22   24 1    
    50   24   25 1    
    51   25   81 1    
    52   25   80 1    
    53   25   26 1    
    54   26   27 1    
    55   26   82 1    
    56   26   83 1    
    57   27   28 1    
    58   27   29 2    
    59   28   84 1    
    60   28   85 1    
    61   28   86 1    
    62   29   87 1    
    63   29   30 1    
    64   30   31 2    
    65   30   32 am   BACKBONE|DICT|INTERRES
    66   32   33 1    
    67   32   34 1    
    68   33   88 1    
    69   34   89 1    
    70   34   35 1    
    71   34   90 1    
    72   35   91 1    
    73   35   36 1    
    74   35   92 1    
    75   36   93 1    
    76   36   37 1    
    77   36   94 1    
    78   37   38 1    
    79   37   39 1    
    80   37   45 1    
    81   39   40 am   BACKBONE|DICT|INTERRES
    82   39   95 1    
    83   40   42 1    
    84   40   41 2    
    85   42   47 1    
    86   42   43 1    
    87   42   44 1    
    88   44   45 am   BACKBONE|DICT|INTERRES
    89   44   96 1    
    90   45   46 2    
    91   47   98 1    
    92   47   97 1    
    93   47   48 1    
    94   48   49 1    
    95   48   99 1    
    96   48  100 1    
    97   49  102 1    
    98   49  101 1    
    99   49   50 1    
   100   50   51 1    
   101   50   52 am   BACKBONE|DICT|INTERRES
   102   51  103 1    
   103   52   53 2    
   104   52   54 1    
   105   54   55 2    
   106   54  104 1    
   107   55   56 1    
   108   55   57 1    
   109   56  105 1    
   110   56  107 1    
   111   56  106 1    
   112   57  109 1    
   113   57   58 1    
   114   57  108 1    
   115   58  110 1    
   116   58   59 1    
   117   58  111 1    
   118   59  112 1    
   119  113  114 1    
   120  113  171 1    
   121  114  172 1    
   122  114  115 1    
   123  114  173 1    
   124  115  175 1    
   125  115  116 1    
   126  115  174 1    
   127  116  118 2    
   128  116  117 1    
   129  117  176 1    
   130  117  177 1    
   131  117  178 1    
   132  118  119 1    
   133  118  337 1    
   134  119  121 am   BACKBONE|DICT|INTERRES
   135  119  120 2    
   136  121  123 1    
   137  121  122 1    
   138  123  124 1    
   139  123  179 1    
   140  123  180 1    
   141  124  182 1    
   142  124  181 1    
   143  124  125 1    
   144  125  126 1    
   145  125  183 1    
   146  125  184 1    
   147  126  127 1    
   148  126  133 1    
   149  126  128 1    
   150  128  129 1    
   151  128  130 am   BACKBONE|DICT|INTERRES
   152  129  185 1    
   153  129  186 1    
   154  129  187 1    
   155  130  132 1    
   156  130  131 2    
   157  132  189 1    
   158  132  188 1    
   159  132  190 1    
   160  133  135 1    
   161  133  134 2    
   162  135  136 1    
   163  136  192 1    
   164  136  191 1    
   165  136  137 1    
   166  137  138 1    
   167  137  193 1    
   168  137  194 1    
   169  138  139 1    
   170  138  140 2    
   171  139  197 1    
   172  139  196 1    
   173  139  195 1    
   174  140  141 1    
   175  140  198 1    
   176  141  143 am   BACKBONE|DICT|INTERRES
   177  141  142 2    
   178  143  145 1    
   179  143  144 1    
   180  144  199 1    
   181  145  200 1    
   182  145  146 1    
   183  145  201 1    
   184  146  147 1    
   185  146  202 1    
   186  146  203 1    
   187  147  204 1    
   188  147  148 1    
   189  147  205 1    
   190  148  149 1    
   191  148  156 1    
   192  148  150 1    
   193  150  206 1    
   194  150  151 am   BACKBONE|DICT|INTERRES
   195  151  152 2    
   196  151  153 1    
   197  153  154 1    
   198  153  158 1    
   199  153  155 1    
   200  155  207 1    
   201  155  156 am   BACKBONE|DICT|INTERRES
   202  156  157 2    
   203  158  208 1    
   204  158  159 1    
   205  158  209 1    
   206  159  211 1    
   207  159  160 1    
   208  159  210 1    
   209  160  161 1    
   210  160  213 1    
   211  160  212 1    
   212  161  163 am   BACKBONE|DICT|INTERRES
   213  161  162 1    
   214  162  214 1    
   215  163  165 1    
   216  163  164 2    
   217  165  166 2    
   218  165  215 1    
   219  166  168 1    
   220  166  167 1    
   221  167  217 1    
   222  167  216 1    
   223  167  218 1    
   224  168  169 1    
   225  168  220 1    
   226  168  219 1    
   227  169  170 1    
   228  169  221 1    
   229  169  222 1    
   230  170  223 1    
   231  224  282 1    
   232  224  225 1    
   233  225  284 1    
   234  225  226 1    
   235  225  283 1    
   236  226  285 1    
   237  226  227 1    
   238  226  286 1    
   239  227  229 2    
   240  227  228 1    
   241  228  288 1    
   242  228  287 1    
   243  228  289 1    
   244  229  230 1    
   245  229  335 1    
   246  230  231 2    
   247  230  232 am   BACKBONE|DICT|INTERRES
   248  232  233 1    
   249  232  234 1    
   250  234  291 1    
   251  234  235 1    
   252  234  290 1    
   253  235  236 1    
   254  235  292 1    
   255  235  293 1    
   256  236  295 1    
   257  236  294 1    
   258  236  237 1    
   259  237  238 1    
   260  237  239 1    
   261  237  244 1    
   262  239  240 1    
   263  239  241 am   BACKBONE|DICT|INTERRES
   264  240  298 1    
   265  240  297 1    
   266  240  296 1    
   267  241  242 2    
   268  241  243 1    
   269  243  301 1    
   270  243  299 1    
   271  243  300 1    
   272  244  245 2    
   273  244  246 1    
   274  246  247 1    
   275  247  303 1    
   276  247  248 1    
   277  247  302 1    
   278  248  304 1    
   279  248  305 1    
   280  248  249 1    
   281  249  250 1    
   282  249  251 2    
   283  250  306 1    
   284  250  307 1    
   285  250  308 1    
   286  251  252 1    
   287  251  309 1    
   288  252  253 2    
   289  252  254 am   BACKBONE|DICT|INTERRES
   290  254  255 1    
   291  254  256 1    
   292  255  310 1    
   293  256  312 1    
   294  256  257 1    
   295  256  311 1    
   296  257  314 1    
   297  257  258 1    
   298  257  313 1    
   299  258  316 1    
   300  258  259 1    
   301  258  315 1    
   302  259  260 1    
   303  259  261 1    
   304  259  267 1    
   305  261  262 am   BACKBONE|DICT|INTERRES
   306  261  317 1    
   307  262  264 1    
   308  262  263 2    
   309  264  265 1    
   310  264  266 1    
   311  264  269 1    
   312  266  267 am   BACKBONE|DICT|INTERRES
   313  266  318 1    
   314  267  268 2    
   315  269  320 1    
   316  269  270 1    
   317  269  319 1    
   318  270  321 1    
   319  270  271 1    
   320  270  322 1    
   321  271  323 1    
   322  271  272 1    
   323  271  324 1    
   324  272  273 1    
   325  272  274 am   BACKBONE|DICT|INTERRES
   326  273  325 1    
   327  274  275 2    
   328  274  276 1    
   329  276  326 1    
   330  276  277 2    
   331  277  278 1    
   332  277  279 1    
   333  278  329 1    
   334  278  327 1    
   335  278  328 1    
   336  279  330 1    
   337  279  280 1    
   338  279  331 1    
   339  280  333 1    
   340  280  281 1    
   341  280  332 1    
   342  281  334 1    
@<TRIPOS>SUBSTRUCTURE
     1 UNK         1 GROUP             0       ****    0 ROOT    
@<TRIPOS>MOLECULE
006_Ch_c3
104   109    1
SMALL
USER_CHARGES


@<TRIPOS>ATOM
      1 Fe1         0.1648    0.6708    0.1366 Fe        1 UNK         0.0000 
      2 O2         -5.0298   -3.7039    5.3252 O.3       1 UNK         0.0000 
      3 C3         -4.4670   -2.6226    4.6329 C.3       1 UNK         0.0000 
      4 C4         -3.2381   -3.0870    3.8392 C.3       1 UNK         0.0000 
      5 C5         -2.5086   -1.9990    3.0572 C.2       1 UNK         0.0000 
      6 C6         -3.0556   -0.5874    3.0534 C.3       1 UNK         0.0000 
      7 C7         -1.3706   -2.3818    2.4202 C.2       1 UNK         0.0000 
      8 C8         -0.3830   -1.5310    1.6839 C.2       1 UNK         0.0000 
      9 O9         -0.4585   -0.3147    1.5554 O.co2     1 UNK         0.0000 
     10 N10         0.6965   -1.9756    1.0678 N.am      1 UNK         0.0000 
     11 O11         1.4112   -0.9305    0.6675 O.co2     1 UNK         0.0000 
     12 C12         1.0470   -3.3376    0.7004 C.3       1 UNK         0.0000 
     13 C13         0.7217   -3.5366   -0.7969 C.3       1 UNK         0.0000 
     14 C14         1.0630   -4.9514   -1.2862 C.3       1 UNK         0.0000 
     15 C15         0.4214   -5.2994   -2.6560 C.3       1 UNK         0.0000 
     16 H16        -0.6809   -5.1869   -2.5381 H         1 UNK         0.0000 
     17 N17         0.6978   -6.7037   -2.9887 N.4       1 UNK         0.0000 
     18 H18         0.3302   -7.3316   -2.2366 H         1 UNK         0.0000 
     19 H19         0.2222   -6.9605   -3.8846 H         1 UNK         0.0000 
     20 H20         1.7273   -6.8631   -3.0891 H         1 UNK         0.0000 
     21 C21         0.8476   -4.4148   -3.8140 C.2       1 UNK         0.0000 
     22 O22         2.0117   -4.4106   -4.1867 O.2       1 UNK         0.0000 
     23 O23        -0.0969   -3.6854   -4.4709 O.3       1 UNK         0.0000 
     24 C24        -0.0274   -3.2523   -5.7905 C.3       1 UNK         0.0000 
     25 C25         0.4262   -1.7896   -5.8863 C.3       1 UNK         0.0000 
     26 C26        -0.4325   -0.8696   -5.0300 C.2       1 UNK         0.0000 
     27 C27        -1.8459   -0.5960   -5.4461 C.3       1 UNK         0.0000 
     28 C28         0.1187   -0.4413   -3.8759 C.2       1 UNK         0.0000 
     29 C29        -0.3934    0.3123   -2.7038 C.2       1 UNK         0.0000 
     30 O30         0.1373    0.0717   -1.6635 O.co2     1 UNK         0.0000 
     31 N31        -1.2917    1.2407   -2.4701 N.am      1 UNK         0.0000 
     32 O32        -1.2761    1.4371   -1.1401 O.co2     1 UNK         0.0000 
     33 C33        -2.0327    2.0572   -3.4119 C.3       1 UNK         0.0000 
     34 C34        -2.8841    3.1339   -2.7015 C.3       1 UNK         0.0000 
     35 C35        -3.6058    4.0750   -3.6882 C.3       1 UNK         0.0000 
     36 C36        -2.7971    5.2990   -4.2099 C.3       1 UNK         0.0000 
     37 H37        -3.4277    5.7806   -4.9893 H         1 UNK         0.0000 
     38 N38        -1.5500    4.8993   -4.8333 N.am      1 UNK         0.0000 
     39 C39        -0.3278    5.3853   -4.4837 C.2       1 UNK         0.0000 
     40 O40         0.6608    4.9897   -5.0846 O.2       1 UNK         0.0000 
     41 C41        -0.1462    6.4386   -3.4062 C.3       1 UNK         0.0000 
     42 H42         0.3020    7.3271   -3.9042 H         1 UNK         0.0000 
     43 N43        -1.3964    6.8527   -2.8016 N.am      1 UNK         0.0000 
     44 C44        -2.6122    6.3485   -3.1320 C.2       1 UNK         0.0000 
     45 O45        -3.6043    6.7893   -2.5700 O.2       1 UNK         0.0000 
     46 C46         0.8420    5.9985   -2.3016 C.3       1 UNK         0.0000 
     47 C47         0.3289    4.8249   -1.4592 C.3       1 UNK         0.0000 
     48 C48         1.3463    4.4107   -0.3864 C.3       1 UNK         0.0000 
     49 N49         0.8627    3.2380    0.3090 N.am      1 UNK         0.0000 
     50 O50         1.3049    1.9873    0.1958 O.co2     1 UNK         0.0000 
     51 C51        -0.0827    3.0197    1.1394 C.2       1 UNK         0.0000 
     52 O52        -0.1300    1.7738    1.2043 O.co2     1 UNK         0.0000 
     53 C53        -0.9139    4.0469    1.8145 C.2       1 UNK         0.0000 
     54 C54        -1.6513    3.8962    2.9405 C.2       1 UNK         0.0000 
     55 C55        -1.7274    2.5972    3.7139 C.3       1 UNK         0.0000 
     56 C56        -2.3583    5.1458    3.4544 C.3       1 UNK         0.0000 
     57 C57        -3.0782    5.0138    4.8021 C.3       1 UNK         0.0000 
     58 O58        -4.1407    4.1075    4.7081 O.3       1 UNK         0.0000 
     59 H59        -4.4704   -3.8475    6.1337 H         1 UNK         0.0000 
     60 H60        -5.2358   -2.2140    3.9453 H         1 UNK         0.0000 
     61 H61        -4.1949   -1.8174    5.3535 H         1 UNK         0.0000 
     62 H62        -3.5485   -3.8913    3.1370 H         1 UNK         0.0000 
     63 H63        -2.5196   -3.5179    4.5719 H         1 UNK         0.0000 
     64 H64        -3.0628   -0.1863    4.0874 H         1 UNK         0.0000 
     65 H65        -4.0919   -0.5969    2.6582 H         1 UNK         0.0000 
     66 H66        -2.5092    0.1193    2.4171 H         1 UNK         0.0000 
     67 H67         0.4599   -4.0831    1.2671 H         1 UNK         0.0000 
     68 H68         2.1204   -3.5176    0.9225 H         1 UNK         0.0000 
     69 H69         1.2536   -2.7907   -1.4269 H         1 UNK         0.0000 
     70 H70        -0.3730   -3.3731   -0.9102 H         1 UNK         0.0000 
     71 H71         2.1664   -5.0865   -1.3083 H         1 UNK         0.0000 
     72 H72         0.6431   -5.6741   -0.5514 H         1 UNK         0.0000 
     73 H73         0.6769   -3.8836   -6.3781 H         1 UNK         0.0000 
     74 H74        -1.0331   -3.3743   -6.2446 H         1 UNK         0.0000 
     75 H75         1.4872   -1.7816   -5.5509 H         1 UNK         0.0000 
     76 H76         0.4318   -1.4358   -6.9391 H         1 UNK         0.0000 
     77 H77        -1.9556    0.4734   -5.6995 H         1 UNK         0.0000 
     78 H78        -2.5489   -0.9113   -4.6457 H         1 UNK         0.0000 
     79 H79        -2.0984   -1.1587   -6.3690 H         1 UNK         0.0000 
     80 H80         1.1203   -0.8145   -3.6692 H         1 UNK         0.0000 
     81 H81        -1.2962    2.5286   -4.0874 H         1 UNK         0.0000 
     82 H82        -2.7351    1.4299   -3.9841 H         1 UNK         0.0000 
     83 H83        -3.6595    2.5733   -2.1348 H         1 UNK         0.0000 
     84 H84        -2.3069    3.7361   -1.9722 H         1 UNK         0.0000 
     85 H85        -4.5031    4.4879   -3.1776 H         1 UNK         0.0000 
     86 H86        -3.9889    3.4697   -4.5384 H         1 UNK         0.0000 
     87 H87        -1.6040    4.2197   -5.6077 H         1 UNK         0.0000 
     88 H88        -1.3527    7.5917   -2.0820 H         1 UNK         0.0000 
     89 H89         1.8147    5.7295   -2.7698 H         1 UNK         0.0000 
     90 H90         1.0229    6.8622   -1.6238 H         1 UNK         0.0000 
     91 H91        -0.6283    5.1044   -0.9733 H         1 UNK         0.0000 
     92 H92         0.1515    3.9568   -2.1309 H         1 UNK         0.0000 
     93 H93         1.5639    5.2273    0.3343 H         1 UNK         0.0000 
     94 H94         2.2877    4.1413   -0.9131 H         1 UNK         0.0000 
     95 H95        -0.8605    5.0427    1.3828 H         1 UNK         0.0000 
     96 H96        -2.7774    2.2506    3.7639 H         1 UNK         0.0000 
     97 H97        -1.1231    1.7807    3.2930 H         1 UNK         0.0000 
     98 H98        -1.3415    2.7548    4.7415 H         1 UNK         0.0000 
     99 H99        -3.0863    5.4944    2.6895 H         1 UNK         0.0000 
    100 H100       -1.5873    5.9376    3.5846 H         1 UNK         0.0000 
    101 H101       -3.4791    6.0132    5.0802 H         1 UNK         0.0000 
    102 H102       -2.3500    4.6912    5.5802 H         1 UNK         0.0000 
    103 H103       -4.4888    3.9990    5.6311 H         1 UNK         0.0000 
    104 H104       -1.0837   -3.4229    2.4061 H         1 UNK         0.0000 
@<TRIPOS>BOND
     1    1    9 nc   
     2    1   11 nc   
     3    1   30 nc   
     4    1   32 nc   
     5    1   50 nc   
     6    1   52 nc   
     7    2   59 1    
     8    2    3 1    
     9    3   61 1    
    10    3    4 1    
    11    3   60 1    
    12    4   63 1    
    13    4    5 1    
    14    4   62 1    
    15    5    7 2    
    16    5    6 1    
    17    6   64 1    
    18    6   65 1    
    19    6   66 1    
    20    7    8 1    
    21    7  104 1    
    22    8    9 2    
    23    8   10 am   BACKBONE|DICT|INTERRES
    24   10   11 1    
    25   10   12 1    
    26   12   68 1    
    27   12   67 1    
    28   12   13 1    
    29   13   14 1    
    30   13   69 1    
    31   13   70 1    
    32   14   72 1    
    33   14   15 1    
    34   14   71 1    
    35   15   16 1    
    36   15   17 1    
    37   15   21 1    
    38   17   18 1    
    39   17   19 1    
    40   17   20 1    
    41   21   22 2    
    42   21   23 1    
    43   23   24 1    
    44   24   25 1    
    45   24   73 1    
    46   24   74 1    
    47   25   75 1    
    48   25   26 1    
    49   25   76 1    
    50   26   28 2    
    51   26   27 1    
    52   27   78 1    
    53   27   77 1    
    54   27   79 1    
    55   28   80 1    
    56   28   29 1    
    57   29   31 am   BACKBONE|DICT|INTERRES
    58   29   30 2    
    59   31   32 1    
    60   31   33 1    
    61   33   34 1    
    62   33   81 1    
    63   33   82 1    
    64   34   83 1    
    65   34   84 1    
    66   34   35 1    
    67   35   85 1    
    68   35   36 1    
    69   35   86 1    
    70   36   37 1    
    71   36   44 1    
    72   36   38 1    
    73   38   39 am   BACKBONE|DICT|INTERRES
    74   38   87 1    
    75   39   41 1    
    76   39   40 2    
    77   41   42 1    
    78   41   43 1    
    79   41   46 1    
    80   43   88 1    
    81   43   44 am   BACKBONE|DICT|INTERRES
    82   44   45 2    
    83   46   90 1    
    84   46   47 1    
    85   46   89 1    
    86   47   91 1    
    87   47   48 1    
    88   47   92 1    
    89   48   49 1    
    90   48   93 1    
    91   48   94 1    
    92   49   51 am   BACKBONE|DICT|INTERRES
    93   49   50 1    
    94   51   52 2    
    95   51   53 1    
    96   53   54 2    
    97   53   95 1    
    98   54   56 1    
    99   54   55 1    
   100   55   96 1    
   101   55   98 1    
   102   55   97 1    
   103   56  100 1    
   104   56   57 1    
   105   56   99 1    
   106   57  101 1    
   107   57  102 1    
   108   57   58 1    
   109   58  103 1    
@<TRIPOS>SUBSTRUCTURE
     1 UNK         1 GROUP             0       ****    0 ROOT    
@<TRIPOS>MOLECULE
008_c1
46   51    1
SMALL
USER_CHARGES


@<TRIPOS>ATOM
      1 Fe1         0.0000    0.0000    0.0000 Fe        1 UNK         0.0000 
      2 C2          3.0360    4.1408    0.0711 C.ar      1 UNK         0.0000 
      3 C3          1.6951    3.7606    0.0465 C.ar      1 UNK         0.0000 
      4 C4          1.3343    2.4080    0.0219 C.ar      1 UNK         0.0000 
      5 O5          0.0000    2.0800    0.0000 O.co2     1 UNK         0.0000 
      6 C6          2.3674    1.4055    0.0221 C.ar      1 UNK         0.0000 
      7 O7          2.0792    0.0578    0.0000 O.co2     1 UNK         0.0000 
      8 C8          3.7094    1.8130    0.0470 C.ar      1 UNK         0.0000 
      9 C9          4.0549    3.1745    0.0717 C.ar      1 UNK         0.0000 
     10 C10         5.4805    3.5826    0.0982 C.2       1 UNK         0.0000 
     11 O11         6.4571    2.6544    0.0986 O.2       1 UNK         0.0000 
     12 O12         5.7872    4.7647    0.1196 O.3       1 UNK         0.0000 
     13 H13         3.2739    5.1971    0.0904 H         1 UNK         0.0000 
     14 H14         0.9287    4.5260    0.0475 H         1 UNK         0.0000 
     15 H15         4.4852    1.0574    0.0478 H         1 UNK         0.0000 
     16 C16         0.1415   -4.0730    3.0848 C.ar      1 UNK         0.0000 
     17 C17         0.0932   -3.7176    1.7375 C.ar      1 UNK         0.0000 
     18 C18         0.0442   -2.3730    1.3488 C.ar      1 UNK         0.0000 
     19 O19         0.0000   -2.0800    0.0000 O.co2     1 UNK         0.0000 
     20 C20         0.0444   -1.3492    2.3731 C.ar      1 UNK         0.0000 
     21 O21         0.0000    0.0000    2.0800 O.co2     1 UNK         0.0000 
     22 C22         0.0936   -1.7366    3.7197 C.ar      1 UNK         0.0000 
     23 C23         0.1422   -3.0899    4.0873 C.ar      1 UNK         0.0000 
     24 C24         0.1940   -3.4714    5.5198 C.2       1 UNK         0.0000 
     25 O25         0.1945   -2.5246    6.4791 O.3       1 UNK         0.0000 
     26 O26         0.2364   -4.6459    5.8485 O.2       1 UNK         0.0000 
     27 H27         0.1787   -5.1241    3.3416 H         1 UNK         0.0000 
     28 H28         0.0945   -4.4979    0.9865 H         1 UNK         0.0000 
     29 H29         0.0940   -0.9687    4.4835 H         1 UNK         0.0000 
     30 C30        -4.0731    0.1409   -3.0855 C.ar      1 UNK         0.0000 
     31 C31        -3.7175    0.0926   -1.7379 C.ar      1 UNK         0.0000 
     32 C32        -2.3731    0.0438   -1.3490 C.ar      1 UNK         0.0000 
     33 O33        -2.0800    0.0000    0.0000 O.co2     1 UNK         0.0000 
     34 C34        -1.3493    0.0438   -2.3734 C.ar      1 UNK         0.0000 
     35 O35         0.0000    0.0000   -2.0800 O.co2     1 UNK         0.0000 
     36 C36        -1.7367    0.0926   -3.7203 C.ar      1 UNK         0.0000 
     37 C37        -3.0903    0.1414   -4.0877 C.ar      1 UNK         0.0000 
     38 C38        -3.4715    0.1936   -5.5204 C.2       1 UNK         0.0000 
     39 O39        -2.5253    0.1939   -6.4797 O.2       1 UNK         0.0000 
     40 O40        -4.6473    0.2372   -5.8487 O.3       1 UNK         0.0000 
     41 H41        -5.1242    0.1785   -3.3422 H         1 UNK         0.0000 
     42 H42        -4.4981    0.0942   -0.9872 H         1 UNK         0.0000 
     43 H43        -0.9687    0.0931   -4.4839 H         1 UNK         0.0000 
     44 H44         6.7435    4.8474    0.1346 H         1 UNK         0.0000 
     45 H45         0.2311   -2.9431    7.3423 H         1 UNK         0.0000 
     46 H46        -4.7118    0.2666   -6.8061 H         1 UNK         0.0000 
@<TRIPOS>BOND
     1    1    5 nc   
     2    1    7 nc   
     3    1   19 nc   
     4    1   21 nc   
     5    1   33 nc   
     6    1   35 nc   
     7    2    9 ar   
     8    2   13 1    
     9    2    3 ar   
    10    3   14 1    
    11    3    4 ar   
    12    4    6 ar   
    13    4    5 1    
    14    6    8 ar   
    15    6    7 1    
    16    8   15 1    
    17    8    9 ar   
    18    9   10 1    
    19   10   11 2    
    20   10   12 1    
    21   12   44 1    
    22   16   27 1    
    23   16   23 ar   
    24   16   17 ar   
    25   17   18 ar   
    26   17   28 1    
    27   18   20 ar   
    28   18   19 1    
    29   20   22 ar   
    30   20   21 1    
    31   22   23 ar   
    32   22   29 1    
    33   23   24 1    
    34   24   26 2    
    35   24   25 1    
    36   25   45 1    
    37   30   31 ar   
    38   30   37 ar   
    39   30   41 1    
    40   31   32 ar   
    41   31   42 1    
    42   32   33 1    
    43   32   34 ar   
    44   34   35 1    
    45   34   36 ar   
    46   36   37 ar   
    47   36   43 1    
    48   37   38 1    
    49   38   39 2    
    50   38   40 1    
    51   40   46 1    
@<TRIPOS>SUBSTRUCTURE
     1 UNK         1 GROUP             0       ****    0 ROOT    
@<TRIPOS>MOLECULE
008_c2
46   51    1
SMALL
USER_CHARGES


@<TRIPOS>ATOM
      1 Fe1         0.0000    0.0000    0.0000 Fe        1 UNK         0.0000 
      2 C2          3.3434    2.0997    1.1964 C.ar      1 UNK         0.0000 
      3 C3          1.9857    2.3961    1.2174 C.ar      1 UNK         0.0000 
      4 C4          1.3027    2.3838   -0.0032 C.ar      1 UNK         0.0000 
      5 O5          0.0000    2.0800    0.0000 O.co2     1 UNK         0.0000 
      6 C6          1.9859    2.3927   -1.2227 C.ar      1 UNK         0.0000 
      7 O7          1.3490    2.5105   -2.4044 O.3       1 UNK         0.0000 
      8 C8          3.3475    2.1133   -1.1992 C.ar      1 UNK         0.0000 
      9 C9          3.8971    1.6121   -0.0031 C.ar      1 UNK         0.0000 
     10 C10         3.4420    0.1781   -0.0078 C.2       1 UNK         0.0000 
     11 O11         2.0785   -0.0803    0.0000 O.co2     1 UNK         0.0000 
     12 O12         4.2481   -0.7379   -0.0250 O.co2     1 UNK         0.0000 
     13 H13         0.4005    2.6885   -2.4601 H         1 UNK         0.0000 
     14 H14         3.8239    1.9148   -2.1518 H         1 UNK         0.0000 
     15 C15         1.2483   -2.0895    3.3400 C.ar      1 UNK         0.0000 
     16 C16         1.2485   -2.3859    1.9803 C.ar      1 UNK         0.0000 
     17 C17         0.0193   -2.3951    1.3158 C.ar      1 UNK         0.0000 
     18 O18         0.0000   -2.0800    0.0000 O.co2     1 UNK         0.0000 
     19 C19        -1.1806   -2.4448    2.0558 C.ar      1 UNK         0.0000 
     20 O20        -2.3732   -2.6672    1.4921 O.3       1 UNK         0.0000 
     21 C21        -1.1336   -2.1303    3.4076 C.ar      1 UNK         0.0000 
     22 C22         0.0613   -1.6095    3.9235 C.ar      1 UNK         0.0000 
     23 C23         0.0139   -0.1830    3.4460 C.2       1 UNK         0.0000 
     24 O24         0.0000    0.0520    2.0793 O.co2     1 UNK         0.0000 
     25 O25        -0.0692    0.7442    4.2360 O.co2     1 UNK         0.0000 
     26 H26        -2.3982   -3.1390    0.6599 H         1 UNK         0.0000 
     27 H27        -2.0788   -1.9721    3.9168 H         1 UNK         0.0000 
     28 C28        -2.0596    1.4034   -3.2751 C.ar      1 UNK         0.0000 
     29 C29        -2.3477    1.3500   -1.9106 C.ar      1 UNK         0.0000 
     30 C30        -2.4116    0.0874   -1.3110 C.ar      1 UNK         0.0000 
     31 O31        -2.0800    0.0000    0.0000 O.co2     1 UNK         0.0000 
     32 C32        -2.5269   -1.0707   -2.1186 C.ar      1 UNK         0.0000 
     33 O33        -2.8280   -2.2847   -1.6389 O.3       1 UNK         0.0000 
     34 C34        -2.2073   -0.9627   -3.4649 C.ar      1 UNK         0.0000 
     35 C35        -1.6287    0.2281   -3.9125 C.ar      1 UNK         0.0000 
     36 C36        -0.2078    0.0858   -3.4455 C.2       1 UNK         0.0000 
     37 O37         0.0285    0.0000   -2.0798 O.co2     1 UNK         0.0000 
     38 O38         0.7081   -0.0270   -4.2394 O.co2     1 UNK         0.0000 
     39 H39        -3.4070   -2.3545   -0.8751 H         1 UNK         0.0000 
     40 H40        -2.1023   -1.8823   -4.0284 H         1 UNK         0.0000 
     41 H41        -2.5186    2.2377   -1.3197 H         1 UNK         0.0000 
     42 H42        -2.1699    2.3326   -3.8143 H         1 UNK         0.0000 
     43 H43         2.1569   -2.6042    1.4385 H         1 UNK         0.0000 
     44 H44         2.1330   -2.2205    3.9454 H         1 UNK         0.0000 
     45 H45         3.9705    2.2334    2.0655 H         1 UNK         0.0000 
     46 H46         1.4972    2.6244    2.1532 H         1 UNK         0.0000 
@<TRIPOS>BOND
     1    1    5 nc   
     2    1   11 nc   
     3    1   18 nc   
     4    1   24 nc   
     5    1   31 nc   
     6    1   37 nc   
     7    2    3 ar   
     8    2    9 ar   
     9    2   45 1    
    10    3    4 ar   
    11    3   46 1    
    12    4    5 1    
    13    4    6 ar   
    14    6    8 ar   
    15    6    7 1    
    16    7   13 1    
    17    8    9 ar   
    18    8   14 1    
    19    9   10 1    
    20   10   11 1    
    21   10   12 2    
    22   15   22 ar   
    23   15   16 ar   
    24   15   44 1    
    25   16   17 ar   
    26   16   43 1    
    27   17   18 1    
    28   17   19 ar   
    29   19   21 ar   
    30   19   20 1    
    31   20   26 1    
    32   21   27 1    
    33   21   22 ar   
    34   22   23 1    
    35   23   25 2    
    36   23   24 1    
    37   28   29 ar   
    38   28   35 ar   
    39   28   42 1    
    40   29   30 ar   
    41   29   41 1    
    42   30   31 1    
    43   30   32 ar   
    44   32   33 1    
    45   32   34 ar   
    46   33   39 1    
    47   34   35 ar   
    48   34   40 1    
    49   35   36 1    
    50   36   37 1    
    51   36   38 2    
@<TRIPOS>SUBSTRUCTURE
     1 UNK         1 GROUP             0       ****    0 ROOT    
@<TRIPOS>MOLECULE
008_c3
46   51    1
SMALL
USER_CHARGES


@<TRIPOS>ATOM
      1 Fe1         0.0000    0.0000    0.0000 Fe        1 UNK         0.0000 
      2 C2          3.8093    2.9611    0.6092 C.ar      1 UNK         0.0000 
      3 C3          2.9280    3.9712    1.0917 C.ar      1 UNK         0.0000 
      4 C4          1.5303    3.7791    0.8692 C.ar      1 UNK         0.0000 
      5 O5          0.6098    4.4221    1.6151 O.3       1 UNK         0.0000 
      6 C6          1.1546    2.7622   -0.0444 C.ar      1 UNK         0.0000 
      7 O7          0.0000    2.0800    0.0000 O.co2     1 UNK         0.0000 
      8 C8          2.0907    2.3125   -0.9313 C.ar      1 UNK         0.0000 
      9 C9          3.2334    1.9855   -0.2395 C.ar      1 UNK         0.0000 
     10 C10         3.2593    0.5765    0.1564 C.2       1 UNK         0.0000 
     11 O11         2.0780   -0.0905    0.0000 O.co2     1 UNK         0.0000 
     12 O12         4.1560    0.1059    0.8383 O.co2     1 UNK         0.0000 
     13 H13         0.8582    5.0819    2.2778 H         1 UNK         0.0000 
     14 C14         0.7769   -2.9772    3.7759 C.ar      1 UNK         0.0000 
     15 C15         1.2838   -3.9472    2.8636 C.ar      1 UNK         0.0000 
     16 C16         1.0050   -3.7495    1.4767 C.ar      1 UNK         0.0000 
     17 O17         1.7538   -4.3394    0.5237 O.3       1 UNK         0.0000 
     18 C18         0.0275   -2.7778    1.1449 C.ar      1 UNK         0.0000 
     19 O19         0.0000   -2.0800    0.0000 O.co2     1 UNK         0.0000 
     20 C20        -0.8496   -2.3880    2.1169 C.ar      1 UNK         0.0000 
     21 C21        -0.1378   -2.0375    3.2413 C.ar      1 UNK         0.0000 
     22 C22         0.2114   -0.6157    3.2554 C.2       1 UNK         0.0000 
     23 O23         0.0000    0.0450    2.0795 O.co2     1 UNK         0.0000 
     24 O24         0.9015   -0.1210    4.1326 O.co2     1 UNK         0.0000 
     25 H25         2.4580   -4.9663    0.7410 H         1 UNK         0.0000 
     26 C26        -3.0239    0.7089   -3.7790 C.ar      1 UNK         0.0000 
     27 C27        -3.9804    1.2344   -2.8636 C.ar      1 UNK         0.0000 
     28 C28        -3.7650    0.9811   -1.4748 C.ar      1 UNK         0.0000 
     29 O29        -4.3415    1.7487   -0.5284 O.3       1 UNK         0.0000 
     30 C30        -2.7908    0.0080   -1.1382 C.ar      1 UNK         0.0000 
     31 O31        -2.0800    0.0000    0.0000 O.co2     1 UNK         0.0000 
     32 C32        -2.4135   -0.8875   -2.1001 C.ar      1 UNK         0.0000 
     33 C33        -2.0762   -0.1947   -3.2404 C.ar      1 UNK         0.0000 
     34 C34        -0.6591    0.1773   -3.2604 C.2       1 UNK         0.0000 
     35 O35         0.0045    0.0000   -2.0800 O.co2     1 UNK         0.0000 
     36 O36        -0.1747    0.8565   -4.1518 O.co2     1 UNK         0.0000 
     37 H37        -4.9681    2.4516   -0.7513 H         1 UNK         0.0000 
     38 H38         1.8576    2.2651   -1.9848 H         1 UNK         0.0000 
     39 H39         3.2765    4.8541    1.6069 H         1 UNK         0.0000 
     40 H40         4.8506    2.9712    0.8956 H         1 UNK         0.0000 
     41 H41        -2.4191   -1.9458   -1.8847 H         1 UNK         0.0000 
     42 H42        -4.8412    1.8039   -3.1815 H         1 UNK         0.0000 
     43 H43        -2.9929    0.9620   -4.8285 H         1 UNK         0.0000 
     44 H44        -1.9115   -2.3948    1.9203 H         1 UNK         0.0000 
     45 H45         1.8527   -4.7885    3.2309 H         1 UNK         0.0000 
     46 H46         1.0945   -2.9888    4.8081 H         1 UNK         0.0000 
@<TRIPOS>BOND
     1    1    7 nc   
     2    1   11 nc   
     3    1   19 nc   
     4    1   23 nc   
     5    1   31 nc   
     6    1   35 nc   
     7    2    3 ar   
     8    2    9 ar   
     9    2   40 1    
    10    3    4 ar   
    11    3   39 1    
    12    4    5 1    
    13    4    6 ar   
    14    5   13 1    
    15    6    7 1    
    16    6    8 ar   
    17    8    9 ar   
    18    8   38 1    
    19    9   10 1    
    20   10   12 2    
    21   10   11 1    
    22   14   15 ar   
    23   14   21 ar   
    24   14   46 1    
    25   15   16 ar   
    26   15   45 1    
    27   16   17 1    
    28   16   18 ar   
    29   17   25 1    
    30   18   19 1    
    31   18   20 ar   
    32   20   21 ar   
    33   20   44 1    
    34   21   22 1    
    35   22   24 2    
    36   22   23 1    
    37   26   33 ar   
    38   26   27 ar   
    39   26   43 1    
    40   27   28 ar   
    41   27   42 1    
    42   28   30 ar   
    43   28   29 1    
    44   29   37 1    
    45   30   31 1    
    46   30   32 ar   
    47   32   33 ar   
    48   32   41 1    
    49   33   34 1    
    50   34   35 1    
    51   34   36 2    
@<TRIPOS>SUBSTRUCTURE
     1 UNK         1 GROUP             0       ****    0 ROOT    
@<TRIPOS>MOLECULE
009_c1
46   51    1
SMALL
USER_CHARGES


@<TRIPOS>ATOM
      1 Fe1         0.0000    0.0000    0.0000 Fe        1 UNK         0.0000 
      2 O2          0.0000    2.0800    0.0000 O.co2     1 UNK         0.0000 
      3 C3          1.1861    2.7042   -0.0072 C.ar      1 UNK         0.0000 
      4 C4          1.6309    3.4035   -1.1616 C.ar      1 UNK         0.0000 
      5 C5          2.1359    2.1376    0.7790 C.ar      1 UNK         0.0000 
      6 C6          2.6786    1.1985   -0.0359 C.ar      1 UNK         0.0000 
      7 O7          2.0800   -0.0000    0.0000 O.co2     1 UNK         0.0000 
      8 C8          3.3448    1.6595   -1.2053 C.ar      1 UNK         0.0000 
      9 C9          2.8540    2.9037   -1.7375 C.ar      1 UNK         0.0000 
     10 C10         3.3440    3.4306   -3.0334 C.2       1 UNK         0.0000 
     11 O11         2.7601    4.5040   -3.5987 O.2       1 UNK         0.0000 
     12 O12         4.2928    2.9033   -3.5935 O.3       1 UNK         0.0000 
     13 O13         0.0000   -2.0800    0.0000 O.co2     1 UNK         0.0000 
     14 C14        -0.0079   -2.7051    1.1855 C.ar      1 UNK         0.0000 
     15 C15        -1.1626   -3.4011    1.6309 C.ar      1 UNK         0.0000 
     16 C16         0.7800   -2.1394    2.1352 C.ar      1 UNK         0.0000 
     17 C17        -0.0340   -1.1989    2.6795 C.ar      1 UNK         0.0000 
     18 O18         0.0000    0.0000    2.0800 O.co2     1 UNK         0.0000 
     19 C19        -1.2020   -1.6589    3.3466 C.ar      1 UNK         0.0000 
     20 C20        -1.7362   -2.9037    2.8533 C.ar      1 UNK         0.0000 
     21 C21        -3.0314   -3.4271    3.3435 C.2       1 UNK         0.0000 
     22 O22        -3.5989   -4.5002    2.7586 O.2       1 UNK         0.0000 
     23 O23        -3.5924   -2.9022    4.2927 O.3       1 UNK         0.0000 
     24 O24        -2.0800    0.0000    0.0000 O.co2     1 UNK         0.0000 
     25 C25        -2.7059   -0.0142   -1.1862 C.ar      1 UNK         0.0000 
     26 C26        -3.3998   -1.1714   -1.6284 C.ar      1 UNK         0.0000 
     27 C27        -2.1465    0.7708   -2.1420 C.ar      1 UNK         0.0000 
     28 C28        -1.2000   -0.0399   -2.6801 C.ar      1 UNK         0.0000 
     29 O29         0.0000    0.0000   -2.0800 O.co2     1 UNK         0.0000 
     30 C30        -1.6567   -1.2100   -3.3459 C.ar      1 UNK         0.0000 
     31 C31        -2.9013   -1.7457   -2.8517 C.ar      1 UNK         0.0000 
     32 C32        -3.4241   -3.0409   -3.3419 C.2       1 UNK         0.0000 
     33 O33        -4.4985   -3.6063   -2.7573 O.3       1 UNK         0.0000 
     34 O34        -2.8986   -3.6021   -4.2903 O.2       1 UNK         0.0000 
     35 H35         4.4777    3.3656   -4.4143 H         1 UNK         0.0000 
     36 H36        -4.4136   -3.3647    4.4754 H         1 UNK         0.0000 
     37 H37        -4.7021   -4.4360   -3.1952 H         1 UNK         0.0000 
     38 H38         2.2786    2.4875    1.7907 H         1 UNK         0.0000 
     39 H39         4.1551    1.0837   -1.6276 H         1 UNK         0.0000 
     40 H40         1.0609    4.2392   -1.5397 H         1 UNK         0.0000 
     41 H41        -2.5053    1.7785   -2.2913 H         1 UNK         0.0000 
     42 H42        -4.2321   -1.5536   -1.0561 H         1 UNK         0.0000 
     43 H43        -1.0798   -1.6300   -4.1565 H         1 UNK         0.0000 
     44 H44         1.7915   -2.4903    2.2769 H         1 UNK         0.0000 
     45 H45        -1.5439   -4.2352    1.0605 H         1 UNK         0.0000 
     46 H46        -1.6222   -1.0836    4.1583 H         1 UNK         0.0000 
@<TRIPOS>BOND
     1    1    2 nc   
     2    1    7 nc   
     3    1   13 nc   
     4    1   18 nc   
     5    1   24 nc   
     6    1   29 nc   
     7    2    3 1    
     8    3    5 ar   
     9    3    4 ar   
    10    4    9 ar   
    11    4   40 1    
    12    5    6 ar   
    13    5   38 1    
    14    6    7 1    
    15    6    8 ar   
    16    8    9 ar   
    17    8   39 1    
    18    9   10 1    
    19   10   11 2    
    20   10   12 1    
    21   12   35 1    
    22   13   14 1    
    23   14   15 ar   
    24   14   16 ar   
    25   15   20 ar   
    26   15   45 1    
    27   16   17 ar   
    28   16   44 1    
    29   17   18 1    
    30   17   19 ar   
    31   19   20 ar   
    32   19   46 1    
    33   20   21 1    
    34   21   23 1    
    35   21   22 2    
    36   23   36 1    
    37   24   25 1    
    38   25   26 ar   
    39   25   27 ar   
    40   26   31 ar   
    41   26   42 1    
    42   27   28 ar   
    43   27   41 1    
    44   28   29 1    
    45   28   30 ar   
    46   30   31 ar   
    47   30   43 1    
    48   31   32 1    
    49   32   33 1    
    50   32   34 2    
    51   33   37 1    
@<TRIPOS>SUBSTRUCTURE
     1 UNK         1 GROUP             0       ****    0 ROOT    
@<TRIPOS>MOLECULE
009_c2
46   51    1
SMALL
USER_CHARGES


@<TRIPOS>ATOM
      1 Fe1         0.0000    0.0000    0.0000 Fe        1 UNK         0.0000 
      2 O2          0.0000    2.0800    0.0000 O.co2     1 UNK         0.0000 
      3 C3          1.1462    2.7748   -0.0171 C.ar      1 UNK         0.0000 
      4 C4          2.1206    2.3711    0.8506 C.ar      1 UNK         0.0000 
      5 C5          1.4684    3.7650   -0.9754 C.ar      1 UNK         0.0000 
      6 C6          2.8467    3.9385   -1.2880 C.ar      1 UNK         0.0000 
      7 O7          3.2107    4.8181   -2.2419 O.3       1 UNK         0.0000 
      8 C8          3.7696    2.9727   -0.7801 C.ar      1 UNK         0.0000 
      9 C9          3.2404    2.0273    0.1313 C.ar      1 UNK         0.0000 
     10 C10         3.2510    0.6061   -0.2251 C.2       1 UNK         0.0000 
     11 O11         2.0791   -0.0596    0.0000 O.co2     1 UNK         0.0000 
     12 O12         4.1206    0.1168   -0.9286 O.co2     1 UNK         0.0000 
     13 H13         4.1278    4.9020   -2.5383 H         1 UNK         0.0000 
     14 O14         0.0000   -2.0800    0.0000 O.co2     1 UNK         0.0000 
     15 C15        -0.0478   -2.7863    1.1385 C.ar      1 UNK         0.0000 
     16 C16         0.8296   -2.4251    2.1233 C.ar      1 UNK         0.0000 
     17 C17        -1.0434   -3.7432    1.4444 C.ar      1 UNK         0.0000 
     18 C18        -1.3656   -3.9258    2.8191 C.ar      1 UNK         0.0000 
     19 O19        -2.3520   -4.7760    3.1675 O.3       1 UNK         0.0000 
     20 C20        -0.8237   -2.9969    3.7584 C.ar      1 UNK         0.0000 
     21 C21         0.1177   -2.0718    3.2470 C.ar      1 UNK         0.0000 
     22 C22        -0.2259   -0.6470    3.2535 C.2       1 UNK         0.0000 
     23 O23         0.0000    0.0148    2.0799 O.co2     1 UNK         0.0000 
     24 O24        -0.9213   -0.1479    4.1251 O.co2     1 UNK         0.0000 
     25 H25        -2.6533   -4.8628    4.0831 H         1 UNK         0.0000 
     26 O26        -2.0800    0.0000    0.0000 O.co2     1 UNK         0.0000 
     27 C27        -2.7921    0.0506   -1.1364 C.ar      1 UNK         0.0000 
     28 C28        -2.3960    0.9664   -2.0723 C.ar      1 UNK         0.0000 
     29 C29        -3.7976   -0.8769   -1.4962 C.ar      1 UNK         0.0000 
     30 C30        -4.0015   -1.1038   -2.8870 C.ar      1 UNK         0.0000 
     31 O31        -4.9022   -2.0222   -3.2908 O.3       1 UNK         0.0000 
     32 C32        -3.0503   -0.5523   -3.7996 C.ar      1 UNK         0.0000 
     33 C33        -2.0770    0.3091   -3.2359 C.ar      1 UNK         0.0000 
     34 C34        -0.6719   -0.1138   -3.2647 C.2       1 UNK         0.0000 
     35 O35         0.0000    0.0000   -2.0800 O.co2     1 UNK         0.0000 
     36 O36        -0.2093   -0.7752   -4.1807 O.co2     1 UNK         0.0000 
     37 H37        -5.0080   -2.2590   -4.2231 H         1 UNK         0.0000 
     38 H38        -4.3706   -1.3768   -0.7292 H         1 UNK         0.0000 
     39 H39        -3.1023   -0.8006   -4.8494 H         1 UNK         0.0000 
     40 H40        -2.3759    2.0174   -1.8247 H         1 UNK         0.0000 
     41 H41         1.8928   -2.4517    1.9356 H         1 UNK         0.0000 
     42 H42        -1.0923   -2.9717    4.8042 H         1 UNK         0.0000 
     43 H43        -1.5221   -4.2971    0.6504 H         1 UNK         0.0000 
     44 H44         1.9284    2.3644    1.9133 H         1 UNK         0.0000 
     45 H45         4.8142    2.9348   -1.0517 H         1 UNK         0.0000 
     46 H46         0.6837    4.3487   -1.4336 H         1 UNK         0.0000 
@<TRIPOS>BOND
     1    1    2 nc   
     2    1   11 nc   
     3    1   14 nc   
     4    1   23 nc   
     5    1   26 nc   
     6    1   35 nc   
     7    2    3 1    
     8    3    4 ar   
     9    3    5 ar   
    10    4    9 ar   
    11    4   44 1    
    12    5    6 ar   
    13    5   46 1    
    14    6    7 1    
    15    6    8 ar   
    16    7   13 1    
    17    8    9 ar   
    18    8   45 1    
    19    9   10 1    
    20   10   11 1    
    21   10   12 2    
    22   14   15 1    
    23   15   17 ar   
    24   15   16 ar   
    25   16   21 ar   
    26   16   41 1    
    27   17   18 ar   
    28   17   43 1    
    29   18   19 1    
    30   18   20 ar   
    31   19   25 1    
    32   20   21 ar   
    33   20   42 1    
    34   21   22 1    
    35   22   24 2    
    36   22   23 1    
    37   26   27 1    
    38   27   28 ar   
    39   27   29 ar   
    40   28   33 ar   
    41   28   40 1    
    42   29   30 ar   
    43   29   38 1    
    44   30   31 1    
    45   30   32 ar   
    46   31   37 1    
    47   32   33 ar   
    48   32   39 1    
    49   33   34 1    
    50   34   35 1    
    51   34   36 2    
@<TRIPOS>SUBSTRUCTURE
     1 UNK         1 GROUP             0       ****    0 ROOT    
@<TRIPOS>MOLECULE
009_c3
46   51    1
SMALL
USER_CHARGES


@<TRIPOS>ATOM
      1 Fe1         0.0000    0.0000    0.0000 Fe        1 UNK         0.0000 
      2 O2          3.2558    4.8330   -2.1607 O.3       1 UNK         0.0000 
      3 C3          2.8733    3.9475   -1.2194 C.ar      1 UNK         0.0000 
      4 C4          3.7884    2.9853   -0.6933 C.ar      1 UNK         0.0000 
      5 C5          1.4888    3.7687   -0.9386 C.ar      1 UNK         0.0000 
      6 C6          1.1473    2.7741    0.0086 C.ar      1 UNK         0.0000 
      7 O7          0.0000    2.0800    0.0000 O.co2     1 UNK         0.0000 
      8 C8          2.1048    2.3677    0.8955 C.ar      1 UNK         0.0000 
      9 C9          3.2424    2.0318    0.2001 C.ar      1 UNK         0.0000 
     10 C10         3.2590    0.6163   -0.1793 C.2       1 UNK         0.0000 
     11 O11         2.0794   -0.0487    0.0000 O.co2     1 UNK         0.0000 
     12 O12         4.1478    0.1353   -0.8643 O.co2     1 UNK         0.0000 
     13 H13         4.1788    4.9209   -2.4359 H         1 UNK         0.0000 
     14 O14        -2.2476   -4.8120    3.2122 O.3       1 UNK         0.0000 
     15 C15        -1.2804   -3.9484    2.8447 C.ar      1 UNK         0.0000 
     16 C16        -0.7307   -3.0145    3.7751 C.ar      1 UNK         0.0000 
     17 C17        -0.9904   -3.7585    1.4642 C.ar      1 UNK         0.0000 
     18 C18        -0.0144   -2.7875    1.1387 C.ar      1 UNK         0.0000 
     19 O19         0.0000   -2.0800    0.0000 O.co2     1 UNK         0.0000 
     20 C20         0.8785   -2.4159    2.1056 C.ar      1 UNK         0.0000 
     21 C21         0.1869   -2.0755    3.2454 C.ar      1 UNK         0.0000 
     22 C22        -0.1835   -0.6566    3.2596 C.2       1 UNK         0.0000 
     23 O23         0.0000    0.0073    2.0800 O.co2     1 UNK         0.0000 
     24 O24        -0.8639   -0.1696    4.1486 O.co2     1 UNK         0.0000 
     25 H25        -2.5278   -4.9049    4.1338 H         1 UNK         0.0000 
     26 O26        -4.8125   -2.2639   -3.2046 O.3       1 UNK         0.0000 
     27 C27        -3.9512   -1.2938   -2.8395 C.ar      1 UNK         0.0000 
     28 C28        -3.0209   -0.7422   -3.7730 C.ar      1 UNK         0.0000 
     29 C29        -3.7591   -1.0011   -1.4590 C.ar      1 UNK         0.0000 
     30 C30        -2.7910   -0.0206   -1.1374 C.ar      1 UNK         0.0000 
     31 O31        -2.0800    0.0000    0.0000 O.co2     1 UNK         0.0000 
     32 C32        -2.4283    0.8717   -2.1086 C.ar      1 UNK         0.0000 
     33 C33        -2.0845    0.1797   -3.2468 C.ar      1 UNK         0.0000 
     34 C34        -0.6632   -0.1857   -3.2600 C.2       1 UNK         0.0000 
     35 O35        -0.0000    0.0000   -2.0800 O.co2     1 UNK         0.0000 
     36 O36        -0.1731   -0.8631   -4.1493 O.co2     1 UNK         0.0000 
     37 H37        -4.9062   -2.5445   -4.1259 H         1 UNK         0.0000 
     38 H38        -2.4469    1.9316   -1.9023 H         1 UNK         0.0000 
     39 H39        -4.3404   -1.5197   -0.7110 H         1 UNK         0.0000 
     40 H40        -3.0602   -1.0352   -4.8117 H         1 UNK         0.0000 
     41 H41         1.8895    2.3534    1.9537 H         1 UNK         0.0000 
     42 H42         4.8397    2.9553   -0.9388 H         1 UNK         0.0000 
     43 H43         0.7527    4.3790   -1.4408 H         1 UNK         0.0000 
     44 H44         1.9378   -2.4266    1.8953 H         1 UNK         0.0000 
     45 H45        -0.9765   -2.9953    4.8266 H         1 UNK         0.0000 
     46 H46        -1.5077   -4.3437    0.7183 H         1 UNK         0.0000 
@<TRIPOS>BOND
     1    1    7 nc   
     2    1   11 nc   
     3    1   19 nc   
     4    1   23 nc   
     5    1   31 nc   
     6    1   35 nc   
     7    2    3 1    
     8    2   13 1    
     9    3    5 ar   
    10    3    4 ar   
    11    4    9 ar   
    12    4   42 1    
    13    5    6 ar   
    14    5   43 1    
    15    6    7 1    
    16    6    8 ar   
    17    8    9 ar   
    18    8   41 1    
    19    9   10 1    
    20   10   11 1    
    21   10   12 2    
    22   14   25 1    
    23   14   15 1    
    24   15   16 ar   
    25   15   17 ar   
    26   16   21 ar   
    27   16   45 1    
    28   17   18 ar   
    29   17   46 1    
    30   18   19 1    
    31   18   20 ar   
    32   20   21 ar   
    33   20   44 1    
    34   21   22 1    
    35   22   24 2    
    36   22   23 1    
    37   26   27 1    
    38   26   37 1    
    39   27   29 ar   
    40   27   28 ar   
    41   28   33 ar   
    42   28   40 1    
    43   29   30 ar   
    44   29   39 1    
    45   30   31 1    
    46   30   32 ar   
    47   32   33 ar   
    48   32   38 1    
    49   33   34 1    
    50   34   35 1    
    51   34   36 2    
@<TRIPOS>SUBSTRUCTURE
     1 UNK         1 GROUP             0       ****    0 ROOT    
@<TRIPOS>MOLECULE
011_r1_c1
85   94    1
SMALL
USER_CHARGES


@<TRIPOS>ATOM
      1 Fe1         0.0000    0.0000    0.0000 Fe        1 UNK         0.0000 
      2 C2         -2.3443   -7.1414   -0.0104 C.ar      1 UNK         0.0000 
      3 N3         -2.8986   -8.0605    0.8112 N.2       1 UNK         0.0000 
      4 C4         -1.8728   -8.6571    1.4437 C.ar      1 UNK         0.0000 
      5 N5         -0.6844   -8.1604    1.0492 N.pl3     1 UNK         0.0000 
      6 H6          0.2616   -8.4572    1.3842 H         1 UNK         0.0000 
      7 C7         -0.9712   -7.2054    0.1417 C.ar      1 UNK         0.0000 
      8 C8          0.0545   -6.3729   -0.5679 C.3       1 UNK         0.0000 
      9 C9         -0.1164   -4.8772   -0.2660 C.3       1 UNK         0.0000 
     10 N10         0.9459   -4.0794   -0.8693 N.am      1 UNK         0.0000 
     11 O11         1.9381   -4.6260   -1.6040 O.3       1 UNK         0.0000 
     12 C12         2.4923   -3.5088   -2.2702 C.3       1 UNK         0.0000 
     13 H13         1.8705   -3.3332   -3.1797 H         1 UNK         0.0000 
     14 C14         3.9372   -3.7582   -2.6949 C.3       1 UNK         0.0000 
     15 C15         2.3689   -2.3215   -1.3040 C.3       1 UNK         0.0000 
     16 H16         3.1523   -2.3781   -0.5169 H         1 UNK         0.0000 
     17 C17         1.0744   -2.7520   -0.6921 C.2       1 UNK         0.0000 
     18 O18         0.2900   -2.0707   -0.0257 O.co2     1 UNK         0.0000 
     19 N19         2.3933   -1.0105   -1.9577 N.am      1 UNK         0.0000 
     20 C20         2.2399    0.1238   -1.2113 C.2       1 UNK         0.0000 
     21 O21         2.0800    0.0000    0.0000 O.co2     1 UNK         0.0000 
     22 C22         1.9565    1.4771   -1.7972 C.ar      1 UNK         0.0000 
     23 C23         1.0979    2.4219   -1.1092 C.ar      1 UNK         0.0000 
     24 O24         0.3779    2.0707    0.0257 O.co2     1 UNK         0.0000 
     25 C25         0.8770    3.6901   -1.6894 C.ar      1 UNK         0.0000 
     26 O26         0.0911    4.5920   -1.0634 O.3       1 UNK         0.0000 
     27 C27         1.4174    3.9935   -2.9468 C.ar      1 UNK         0.0000 
     28 C28         2.1693    3.0490   -3.6419 C.ar      1 UNK         0.0000 
     29 C29         2.4441    1.8066   -3.0727 C.ar      1 UNK         0.0000 
     30 H30        -2.8989   -6.4822   -0.6613 H         1 UNK         0.0000 
     31 H31        -0.0224   -6.5491   -1.6624 H         1 UNK         0.0000 
     32 H32         1.0631   -6.6968   -0.2273 H         1 UNK         0.0000 
     33 H33        -0.0852   -4.7368    0.8377 H         1 UNK         0.0000 
     34 H34        -1.1045   -4.5250   -0.6407 H         1 UNK         0.0000 
     35 H35         4.3287   -2.8672   -3.2304 H         1 UNK         0.0000 
     36 H36         4.5683   -3.9623   -1.8066 H         1 UNK         0.0000 
     37 H37         3.9777   -4.6335   -3.3775 H         1 UNK         0.0000 
     38 H38         2.4430   -0.9610   -2.9848 H         1 UNK         0.0000 
     39 H39        -0.1264    5.4500   -1.4536 H         1 UNK         0.0000 
     40 H40         1.2121    4.9502   -3.4109 H         1 UNK         0.0000 
     41 H41         2.5353    3.2779   -4.6346 H         1 UNK         0.0000 
     42 H42         3.0307    1.1004   -3.6437 H         1 UNK         0.0000 
     43 C43         2.3398    0.0078    7.1460 C.ar      1 UNK         0.0000 
     44 N44         2.8928   -0.8121    8.0599 N.pl3     1 UNK         0.0000 
     45 H45         3.9094   -0.9317    8.2661 H         1 UNK         0.0000 
     46 C46         1.8658   -1.4492    8.6582 C.ar      1 UNK         0.0000 
     47 N47         0.6802   -1.0584    8.1525 N.2       1 UNK         0.0000 
     48 C48         0.9685   -0.1492    7.2039 C.ar      1 UNK         0.0000 
     49 C49        -0.0583    0.5633    6.3710 C.3       1 UNK         0.0000 
     50 C50         0.1172    0.2655    4.8743 C.3       1 UNK         0.0000 
     51 N51        -0.9413    0.8749    4.0804 N.am      1 UNK         0.0000 
     52 O52        -1.9364    1.6044    4.6265 O.3       1 UNK         0.0000 
     53 C53        -2.4909    2.2760    3.5065 C.3       1 UNK         0.0000 
     54 H54        -1.8643    3.1834    3.3330 H         1 UNK         0.0000 
     55 C55        -3.9325    2.6997    3.7552 C.3       1 UNK         0.0000 
     56 C56        -2.3667    1.3080    2.3225 C.3       1 UNK         0.0000 
     57 H57        -3.1505    0.5206    2.3776 H         1 UNK         0.0000 
     58 C58        -1.0714    0.6959    2.7514 C.2       1 UNK         0.0000 
     59 O59        -0.2900    0.0257    2.0707 O.co2     1 UNK         0.0000 
     60 N60        -2.3911    1.9594    1.0102 N.am      1 UNK         0.0000 
     61 C61        -2.2390    1.2114   -0.1241 C.2       1 UNK         0.0000 
     62 O62        -2.0800    0.0000    0.0000 O.co2     1 UNK         0.0000 
     63 C63        -1.9549    1.7982   -1.4771 C.ar      1 UNK         0.0000 
     64 C64        -1.0967    1.1100   -2.4218 C.ar      1 UNK         0.0000 
     65 O65        -0.3779   -0.0257   -2.0707 O.co2     1 UNK         0.0000 
     66 C66        -0.8744    1.6905   -3.6894 C.ar      1 UNK         0.0000 
     67 O67        -0.0879    1.0620   -4.5908 O.3       1 UNK         0.0000 
     68 C68        -1.4131    2.9488   -3.9921 C.ar      1 UNK         0.0000 
     69 C69        -2.1651    3.6439   -3.0477 C.ar      1 UNK         0.0000 
     70 C70        -2.4414    3.0740   -1.8060 C.ar      1 UNK         0.0000 
     71 H71         2.8954    0.6651    6.4913 H         1 UNK         0.0000 
     72 H72         0.0173    1.6574    6.5508 H         1 UNK         0.0000 
     73 H73        -1.0668    0.2204    6.6937 H         1 UNK         0.0000 
     74 H74         0.0812   -0.8358    4.7329 H         1 UNK         0.0000 
     75 H75         1.1045    0.6390    4.5263 H         1 UNK         0.0000 
     76 H76        -4.3241    3.2347    2.8644 H         1 UNK         0.0000 
     77 H77        -4.5656    1.8097    3.9562 H         1 UNK         0.0000 
     78 H78        -3.9775    3.3797    4.6317 H         1 UNK         0.0000 
     79 H79        -2.4399    2.9873    0.9598 H         1 UNK         0.0000 
     80 H80         0.1308    1.4547   -5.4484 H         1 UNK         0.0000 
     81 H81        -1.2063    3.4134   -4.9483 H         1 UNK         0.0000 
     82 H82        -2.5299    4.6371   -3.2760 H         1 UNK         0.0000 
     83 H83        -3.0279    3.6452   -1.0998 H         1 UNK         0.0000 
     84 H84        -2.0640   -9.4343    2.1688 H         1 UNK         0.0000 
     85 H85         2.0588   -2.1702    9.4388 H         1 UNK         0.0000 
@<TRIPOS>BOND
     1    1   18 nc   
     2    1   21 nc   
     3    1   24 nc   
     4    1   59 nc   
     5    1   62 nc   
     6    1   65 nc   
     7    2    7 ar   
     8    2    3 ar   
     9    2   30 1    
    10    3    4 ar   
    11    4    5 ar   
    12    4   84 1    
    13    5    6 1    
    14    5    7 ar   
    15    7    8 1    
    16    8    9 1    
    17    8   32 1    
    18    8   31 1    
    19    9   33 1    
    20    9   10 1    
    21    9   34 1    
    22   10   17 am   BACKBONE|DICT|INTERRES
    23   10   11 1    
    24   11   12 1    
    25   12   13 1    
    26   12   15 1    
    27   12   14 1    
    28   14   36 1    
    29   14   35 1    
    30   14   37 1    
    31   15   17 1    
    32   15   16 1    
    33   15   19 1    
    34   17   18 2    
    35   19   20 am   BACKBONE|DICT|INTERRES
    36   19   38 1    
    37   20   22 1    
    38   20   21 2    
    39   22   23 ar   
    40   22   29 ar   
    41   23   24 1    
    42   23   25 ar   
    43   25   26 1    
    44   25   27 ar   
    45   26   39 1    
    46   27   28 ar   
    47   27   40 1    
    48   28   29 ar   
    49   28   41 1    
    50   29   42 1    
    51   43   48 ar   
    52   43   44 ar   
    53   43   71 1    
    54   44   45 1    
    55   44   46 ar   
    56   46   47 ar   
    57   46   85 1    
    58   47   48 ar   
    59   48   49 1    
    60   49   72 1    
    61   49   73 1    
    62   49   50 1    
    63   50   51 1    
    64   50   74 1    
    65   50   75 1    
    66   51   52 1    
    67   51   58 am   BACKBONE|DICT|INTERRES
    68   52   53 1    
    69   53   54 1    
    70   53   55 1    
    71   53   56 1    
    72   55   77 1    
    73   55   78 1    
    74   55   76 1    
    75   56   57 1    
    76   56   58 1    
    77   56   60 1    
    78   58   59 2    
    79   60   61 am   BACKBONE|DICT|INTERRES
    80   60   79 1    
    81   61   63 1    
    82   61   62 2    
    83   63   64 ar   
    84   63   70 ar   
    85   64   65 1    
    86   64   66 ar   
    87   66   67 1    
    88   66   68 ar   
    89   67   80 1    
    90   68   69 ar   
    91   68   81 1    
    92   69   70 ar   
    93   69   82 1    
    94   70   83 1    
@<TRIPOS>SUBSTRUCTURE
     1 UNK         1 GROUP             0       ****    0 ROOT    
@<TRIPOS>MOLECULE
011_r2_c1
86   95    1
SMALL
USER_CHARGES


@<TRIPOS>ATOM
      1 Fe1         0.0000    0.0000    0.0000 Fe        1 UNK         0.0000 
      2 C2          0.8956    7.0498   -2.7007 C.ar      1 UNK         0.0000 
      3 N3          0.1466    8.0647   -3.1787 N.2       1 UNK         0.0000 
      4 C4         -0.3165    8.7017   -2.0811 C.ar      1 UNK         0.0000 
      5 N5          0.1104    8.1292   -0.9410 N.pl3     1 UNK         0.0000 
      6 H6         -0.1099    8.4315    0.0339 H         1 UNK         0.0000 
      7 C7          0.8712    7.0904   -1.3241 C.ar      1 UNK         0.0000 
      8 C8          1.5630    6.1545   -0.3805 C.3       1 UNK         0.0000 
      9 C9          1.0462    4.7177   -0.5385 C.3       1 UNK         0.0000 
     10 N10         1.6222    3.8341    0.4611 N.3       1 UNK         0.0000 
     11 O11         2.5192    4.2721    1.3784 O.3       1 UNK         0.0000 
     12 C12         2.9587    3.0997    2.0480 C.3       1 UNK         0.0000 
     13 H13         3.1559    3.2953    3.1255 H         1 UNK         0.0000 
     14 C14         4.2573    2.6155    1.3965 C.3       1 UNK         0.0000 
     15 C15         1.8355    2.0773    1.9148 C.3       1 UNK         0.0000 
     16 H16         1.0671    2.3050    2.6832 H         1 UNK         0.0000 
     17 C17         1.2096    2.5669    0.6391 C.3       1 UNK         0.0000 
     18 O18         0.2661    2.0646    0.0000 O.co2     1 UNK         0.0000 
     19 N19         2.2762    0.6869    2.1236 N.am      1 UNK         0.0000 
     20 C20         2.2733   -0.2911    1.1741 C.2       1 UNK         0.0000 
     21 O21         2.0800    0.0000    0.0000 O.co2     1 UNK         0.0000 
     22 C22         2.1364   -1.7217    1.5638 C.ar      1 UNK         0.0000 
     23 C23         1.1626   -2.5661    0.9218 C.ar      1 UNK         0.0000 
     24 O24         0.2680   -2.0646    0.0000 O.co2     1 UNK         0.0000 
     25 C25         1.0820   -3.9221    1.3010 C.ar      1 UNK         0.0000 
     26 O26         0.1974   -4.7425    0.6945 O.3       1 UNK         0.0000 
     27 C27         1.9111   -4.4182    2.3172 C.ar      1 UNK         0.0000 
     28 C28         2.8041   -3.5757    2.9782 C.ar      1 UNK         0.0000 
     29 C29         2.9126   -2.2363    2.6101 C.ar      1 UNK         0.0000 
     30 H30         1.4204    6.3338   -3.3185 H         1 UNK         0.0000 
     31 H31        -0.9581    9.5728   -2.1144 H         1 UNK         0.0000 
     32 H32         1.3571    6.4945    0.6584 H         1 UNK         0.0000 
     33 H33         2.6598    6.1898   -0.5546 H         1 UNK         0.0000 
     34 H34        -0.0581    4.7354   -0.3994 H         1 UNK         0.0000 
     35 H35         1.2725    4.3305   -1.5556 H         1 UNK         0.0000 
     36 H36         4.6181    1.6950    1.9037 H         1 UNK         0.0000 
     37 H37         4.0950    2.3944    0.3204 H         1 UNK         0.0000 
     38 H38         5.0382    3.3948    1.5000 H         1 UNK         0.0000 
     39 H39         2.3761    0.4105    3.1125 H         1 UNK         0.0000 
     40 H40         0.1253   -5.6821    0.9176 H         1 UNK         0.0000 
     41 H41         1.8490   -5.4584    2.6127 H         1 UNK         0.0000 
     42 H42         3.4209   -3.9634    3.7784 H         1 UNK         0.0000 
     43 H43         3.6185   -1.6033    3.1320 H         1 UNK         0.0000 
     44 C44        -0.8936   -2.6948    7.0505 C.ar      1 UNK         0.0000 
     45 N45        -0.1398   -3.1705    8.0621 N.2       1 UNK         0.0000 
     46 C46         0.3207   -2.0729    8.6979 C.ar      1 UNK         0.0000 
     47 N47        -0.1088   -0.9324    8.1285 N.pl3     1 UNK         0.0000 
     48 H48         0.1082    0.0429    8.4295 H         1 UNK         0.0000 
     49 C49        -0.8676   -1.3227    7.0909 C.ar      1 UNK         0.0000 
     50 C50        -1.5637   -0.3820    6.1589 C.3       1 UNK         0.0000 
     51 C51        -1.0475   -0.5378    4.7170 C.3       1 UNK         0.0000 
     52 N52        -1.6250    0.4604    3.8328 N.am      1 UNK         0.0000 
     53 O53        -2.5223    1.3766    4.2726 O.3       1 UNK         0.0000 
     54 C54        -2.9638    2.0442    3.0991 C.3       1 UNK         0.0000 
     55 H55        -3.1554    3.1250    3.2955 H         1 UNK         0.0000 
     56 C56        -4.2613    1.3975    2.6156 C.3       1 UNK         0.0000 
     57 C57        -1.8379    1.9148    2.0766 C.3       1 UNK         0.0000 
     58 H58        -1.0678    2.6821    2.3043 H         1 UNK         0.0000 
     59 C59        -1.2095    0.6408    2.5659 C.2       1 UNK         0.0000 
     60 O60        -0.2661    0.0000    2.0646 O.co2     1 UNK         0.0000 
     61 N61        -2.2779    2.1242    0.6859 N.am      1 UNK         0.0000 
     62 C62        -2.2736    1.1739   -0.2917 C.2       1 UNK         0.0000 
     63 O63        -2.0800    0.0000    0.0000 O.co2     1 UNK         0.0000 
     64 C64        -2.1366    1.5638   -1.7226 C.ar      1 UNK         0.0000 
     65 C65        -1.1629    0.9209   -2.5673 C.ar      1 UNK         0.0000 
     66 O66        -0.2680    0.0000   -2.0646 O.co2     1 UNK         0.0000 
     67 C67        -1.0815    1.3000   -3.9235 C.ar      1 UNK         0.0000 
     68 O68        -0.1957    0.6934   -4.7418 O.3       1 UNK         0.0000 
     69 C69        -1.9099    2.3164   -4.4199 C.ar      1 UNK         0.0000 
     70 C70        -2.8033    2.9782   -3.5765 C.ar      1 UNK         0.0000 
     71 C71        -2.9118    2.6109   -2.2366 C.ar      1 UNK         0.0000 
     72 H72        -1.4156   -3.3138    6.3333 H         1 UNK         0.0000 
     73 H73         0.9665   -2.1048    9.5661 H         1 UNK         0.0000 
     74 H74        -1.3604    0.6623    6.4935 H         1 UNK         0.0000 
     75 H75        -2.6620   -0.5519    6.1903 H         1 UNK         0.0000 
     76 H76         0.0576   -0.3957    4.7365 H         1 UNK         0.0000 
     77 H77        -1.2710   -1.5553    4.3336 H         1 UNK         0.0000 
     78 H78        -4.6187    1.9073    1.6940 H         1 UNK         0.0000 
     79 H79        -4.0978    0.3228    2.3942 H         1 UNK         0.0000 
     80 H80        -5.0395    1.5039    3.3948 H         1 UNK         0.0000 
     81 H81        -2.3765    3.1129    0.4093 H         1 UNK         0.0000 
     82 H82        -0.1213    0.9165   -5.6806 H         1 UNK         0.0000 
     83 H83        -1.8464    2.6123   -5.4596 H         1 UNK         0.0000 
     84 H84        -3.4186    3.7793   -3.9647 H         1 UNK         0.0000 
     85 H85        -3.6165    3.1334   -1.6037 H         1 UNK         0.0000 
     86 H86         1.9806    2.1382   -0.0011 H         1 UNK         0.0000 
@<TRIPOS>BOND
     1    1   18 nc   
     2    1   21 nc   
     3    1   24 nc   
     4    1   60 nc   
     5    1   63 nc   
     6    1   66 nc   
     7    2    7 ar   
     8    2    3 ar   
     9    2   30 1    
    10    3    4 ar   
    11    4    5 ar   
    12    4   31 1    
    13    5    6 1    
    14    5    7 ar   
    15    7    8 1    
    16    8   32 1    
    17    8    9 1    
    18    8   33 1    
    19    9   34 1    
    20    9   10 1    
    21    9   35 1    
    22   10   17 1    
    23   10   11 1    
    24   11   12 1    
    25   12   13 1    
    26   12   14 1    
    27   12   15 1    
    28   14   38 1    
    29   14   36 1    
    30   14   37 1    
    31   15   19 1    
    32   15   16 1    
    33   15   17 1    
    34   17   18 1    
    35   17   86 1    
    36   19   39 1    
    37   19   20 am   BACKBONE|DICT|INTERRES
    38   20   22 1    
    39   20   21 2    
    40   22   29 ar   
    41   22   23 ar   
    42   23   25 ar   
    43   23   24 1    
    44   25   27 ar   
    45   25   26 1    
    46   26   40 1    
    47   27   41 1    
    48   27   28 ar   
    49   28   42 1    
    50   28   29 ar   
    51   29   43 1    
    52   44   49 ar   
    53   44   45 ar   
    54   44   72 1    
    55   45   46 ar   
    56   46   73 1    
    57   46   47 ar   
    58   47   48 1    
    59   47   49 ar   
    60   49   50 1    
    61   50   75 1    
    62   50   74 1    
    63   50   51 1    
    64   51   76 1    
    65   51   52 1    
    66   51   77 1    
    67   52   53 1    
    68   52   59 am   BACKBONE|DICT|INTERRES
    69   53   54 1    
    70   54   55 1    
    71   54   56 1    
    72   54   57 1    
    73   56   80 1    
    74   56   78 1    
    75   56   79 1    
    76   57   58 1    
    77   57   59 1    
    78   57   61 1    
    79   59   60 2    
    80   61   62 am   BACKBONE|DICT|INTERRES
    81   61   81 1    
    82   62   64 1    
    83   62   63 2    
    84   64   65 ar   
    85   64   71 ar   
    86   65   66 1    
    87   65   67 ar   
    88   67   68 1    
    89   67   69 ar   
    90   68   82 1    
    91   69   70 ar   
    92   69   83 1    
    93   70   71 ar   
    94   70   84 1    
    95   71   85 1    
@<TRIPOS>SUBSTRUCTURE
     1 UNK         1 GROUP             0       ****    0 ROOT    
@<TRIPOS>MOLECULE
011_r3_c1
85   94    1
SMALL
USER_CHARGES


@<TRIPOS>ATOM
      1 Fe1         0.0000    0.0000    0.0000 Fe        1 UNK         0.0000 
      2 C2         -2.1589    7.8807   -0.8171 C.ar      1 UNK         0.0000 
      3 N3         -3.2738    8.2682   -0.1775 N.pl3     1 UNK         0.0000 
      4 H4         -3.6320    9.2443   -0.0764 H         1 UNK         0.0000 
      5 C5         -3.8333    7.1412    0.3027 C.ar      1 UNK         0.0000 
      6 N6         -3.1179    6.0413   -0.0066 N.2       1 UNK         0.0000 
      7 C7         -2.0656    6.5087   -0.7090 C.ar      1 UNK         0.0000 
      8 C8         -0.9746    5.6495   -1.2735 C.3       1 UNK         0.0000 
      9 C9         -0.2389    4.9057   -0.1567 C.3       1 UNK         0.0000 
     10 N10         0.8631    4.1361   -0.7032 N.am      1 UNK         0.0000 
     11 O11         1.8719    4.7370   -1.3703 O.3       1 UNK         0.0000 
     12 C12         2.4857    3.6595   -2.0558 C.3       1 UNK         0.0000 
     13 H13         1.9109    3.5210   -3.0014 H         1 UNK         0.0000 
     14 C14         3.9446    3.9498   -2.3867 C.3       1 UNK         0.0000 
     15 C15         2.3340    2.4209   -1.1572 C.3       1 UNK         0.0000 
     16 H16         3.0957    2.4180   -0.3485 H         1 UNK         0.0000 
     17 C17         1.0260    2.8079   -0.5605 C.2       1 UNK         0.0000 
     18 O18         0.2500    2.0885    0.0691 O.co2     1 UNK         0.0000 
     19 N19         2.3585    1.1524   -1.8918 N.am      1 UNK         0.0000 
     20 C20         2.2293   -0.0311   -1.2201 C.2       1 UNK         0.0000 
     21 O21         2.0800    0.0000    0.0000 O.co2     1 UNK         0.0000 
     22 C22         1.9882   -1.3495   -1.8858 C.ar      1 UNK         0.0000 
     23 C23         1.1897   -2.3616   -1.2312 C.ar      1 UNK         0.0000 
     24 O24         0.4810   -2.0885   -0.0691 O.co2     1 UNK         0.0000 
     25 C25         1.0160   -3.6090   -1.8677 C.ar      1 UNK         0.0000 
     26 O26         0.2907   -4.5771   -1.2692 O.3       1 UNK         0.0000 
     27 C27         1.5397   -3.8224   -3.1518 C.ar      1 UNK         0.0000 
     28 C28         2.2273   -2.8076   -3.8150 C.ar      1 UNK         0.0000 
     29 C29         2.4573   -1.5847   -3.1878 C.ar      1 UNK         0.0000 
     30 H30        -1.4687    8.5477   -1.3207 H         1 UNK         0.0000 
     31 H31        -4.7542    7.1192    0.8713 H         1 UNK         0.0000 
     32 H32        -1.4109    4.9180   -1.9863 H         1 UNK         0.0000 
     33 H33        -0.2509    6.2922   -1.8217 H         1 UNK         0.0000 
     34 H34         0.1735    5.6453    0.5615 H         1 UNK         0.0000 
     35 H35        -0.9547    4.2551    0.3932 H         1 UNK         0.0000 
     36 H36         4.0127    4.8586   -3.0226 H         1 UNK         0.0000 
     37 H37         4.5223    4.1164   -1.4524 H         1 UNK         0.0000 
     38 H38         4.3826    3.0902   -2.9364 H         1 UNK         0.0000 
     39 H39         2.4035    1.1687   -2.9209 H         1 UNK         0.0000 
     40 H40         0.1071   -5.4256   -1.6976 H         1 UNK         0.0000 
     41 H41         1.3698   -4.7632   -3.6601 H         1 UNK         0.0000 
     42 H42         2.5785   -2.9658   -4.8266 H         1 UNK         0.0000 
     43 H43         2.9963   -0.8222   -3.7326 H         1 UNK         0.0000 
     44 C44         2.1572   -0.8245    7.8862 C.ar      1 UNK         0.0000 
     45 N45         3.2755   -0.1888    8.2684 N.pl3     1 UNK         0.0000 
     46 H46         3.6355   -0.0936    9.2507 H         1 UNK         0.0000 
     47 C47         3.8351    0.2922    7.1506 C.ar      1 UNK         0.0000 
     48 N48         3.1161   -0.0079    6.0496 N.2       1 UNK         0.0000 
     49 C49         2.0620   -0.7082    6.5155 C.ar      1 UNK         0.0000 
     50 C50         0.9686   -1.2671    5.6537 C.3       1 UNK         0.0000 
     51 C51         0.2336   -0.1526    4.9074 C.3       1 UNK         0.0000 
     52 N52        -0.8670   -0.7029    4.1339 N.am      1 UNK         0.0000 
     53 O53        -1.8795   -1.3609    4.7310 O.3       1 UNK         0.0000 
     54 C54        -2.4891   -2.0526    3.6566 C.3       1 UNK         0.0000 
     55 H55        -1.9152   -2.9994    3.5227 H         1 UNK         0.0000 
     56 C56        -3.9469   -2.3844    3.9483 C.3       1 UNK         0.0000 
     57 C57        -2.3344   -1.1524    2.4171 C.3       1 UNK         0.0000 
     58 H58        -3.0985   -0.3451    2.4175 H         1 UNK         0.0000 
     59 C59        -1.0264   -0.5593    2.8056 C.2       1 UNK         0.0000 
     60 O60        -0.2500    0.0691    2.0885 O.co2     1 UNK         0.0000 
     61 N61        -2.3611   -1.8902    1.1531 N.am      1 UNK         0.0000 
     62 C62        -2.2301   -1.2201   -0.0312 C.2       1 UNK         0.0000 
     63 O63        -2.0800    0.0000    0.0000 O.co2     1 UNK         0.0000 
     64 C64        -1.9865   -1.8866   -1.3492 C.ar      1 UNK         0.0000 
     65 C65        -1.1876   -1.2320   -2.3611 C.ar      1 UNK         0.0000 
     66 O66        -0.4810   -0.0691   -2.0885 O.co2     1 UNK         0.0000 
     67 C67        -1.0108   -1.8692   -3.6077 C.ar      1 UNK         0.0000 
     68 O68        -0.2843   -1.2704   -4.5749 O.3       1 UNK         0.0000 
     69 C69        -1.5320   -3.1541   -3.8209 C.ar      1 UNK         0.0000 
     70 C70        -2.2206   -3.8173   -2.8067 C.ar      1 UNK         0.0000 
     71 C71        -2.4536   -3.1894   -1.5845 C.ar      1 UNK         0.0000 
     72 H72         1.4677   -1.3281    8.5511 H         1 UNK         0.0000 
     73 H73         4.7577    0.8579    7.1315 H         1 UNK         0.0000 
     74 H74         1.4049   -1.9799    4.9229 H         1 UNK         0.0000 
     75 H75         0.2456   -1.8162    6.2965 H         1 UNK         0.0000 
     76 H76        -0.1794    0.5709    5.6474 H         1 UNK         0.0000 
     77 H77         0.9508    0.3967    4.2582 H         1 UNK         0.0000 
     78 H78        -4.0162   -3.0178    4.8582 H         1 UNK         0.0000 
     79 H79        -4.5273   -1.4497    4.1175 H         1 UNK         0.0000 
     80 H80        -4.3858   -2.9342    3.0909 H         1 UNK         0.0000 
     81 H81        -2.4062   -2.9199    1.1702 H         1 UNK         0.0000 
     82 H82        -0.0979   -1.6991   -5.4226 H         1 UNK         0.0000 
     83 H83        -1.3593   -3.6630   -4.7610 H         1 UNK         0.0000 
     84 H84        -2.5700   -4.8295   -2.9648 H         1 UNK         0.0000 
     85 H85        -2.9930   -3.7345   -0.8225 H         1 UNK         0.0000 
@<TRIPOS>BOND
     1    1   18 nc   
     2    1   21 nc   
     3    1   24 nc   
     4    1   60 nc   
     5    1   63 nc   
     6    1   66 nc   
     7    2    7 ar   
     8    2    3 ar   
     9    2   30 1    
    10    3    4 1    
    11    3    5 ar   
    12    5   31 1    
    13    5    6 ar   
    14    6    7 ar   
    15    7    8 1    
    16    8    9 1    
    17    8   32 1    
    18    8   33 1    
    19    9   35 1    
    20    9   34 1    
    21    9   10 1    
    22   10   17 am   BACKBONE|DICT|INTERRES
    23   10   11 1    
    24   11   12 1    
    25   12   13 1    
    26   12   15 1    
    27   12   14 1    
    28   14   37 1    
    29   14   36 1    
    30   14   38 1    
    31   15   17 1    
    32   15   16 1    
    33   15   19 1    
    34   17   18 2    
    35   19   20 am   BACKBONE|DICT|INTERRES
    36   19   39 1    
    37   20   22 1    
    38   20   21 2    
    39   22   23 ar   
    40   22   29 ar   
    41   23   24 1    
    42   23   25 ar   
    43   25   26 1    
    44   25   27 ar   
    45   26   40 1    
    46   27   28 ar   
    47   27   41 1    
    48   28   29 ar   
    49   28   42 1    
    50   29   43 1    
    51   44   45 ar   
    52   44   72 1    
    53   44   49 ar   
    54   45   46 1    
    55   45   47 ar   
    56   47   48 ar   
    57   47   73 1    
    58   48   49 ar   
    59   49   50 1    
    60   50   75 1    
    61   50   51 1    
    62   50   74 1    
    63   51   76 1    
    64   51   52 1    
    65   51   77 1    
    66   52   53 1    
    67   52   59 am   BACKBONE|DICT|INTERRES
    68   53   54 1    
    69   54   55 1    
    70   54   56 1    
    71   54   57 1    
    72   56   79 1    
    73   56   78 1    
    74   56   80 1    
    75   57   58 1    
    76   57   59 1    
    77   57   61 1    
    78   59   60 2    
    79   61   81 1    
    80   61   62 am   BACKBONE|DICT|INTERRES
    81   62   64 1    
    82   62   63 2    
    83   64   65 ar   
    84   64   71 ar   
    85   65   66 1    
    86   65   67 ar   
    87   67   68 1    
    88   67   69 ar   
    89   68   82 1    
    90   69   70 ar   
    91   69   83 1    
    92   70   71 ar   
    93   70   84 1    
    94   71   85 1    
@<TRIPOS>SUBSTRUCTURE
     1 UNK         1 GROUP             0       ****    0 ROOT    
@<TRIPOS>MOLECULE
011_r4_c1
86   95    1
SMALL
USER_CHARGES


@<TRIPOS>ATOM
      1 Fe1         0.0000    0.0000    0.0000 Fe        1 UNK         0.0000 
      2 C2         -2.0600    8.0791    0.6072 C.ar      1 UNK         0.0000 
      3 N3         -3.1774    8.4932   -0.0233 N.2       1 UNK         0.0000 
      4 C4         -3.7897    7.3968   -0.4841 C.ar      1 UNK         0.0000 
      5 N5         -3.1039    6.2839   -0.1602 N.pl3     1 UNK         0.0000 
      6 H6         -3.3886    5.3172   -0.3851 H         1 UNK         0.0000 
      7 C7         -2.0103    6.6927    0.5105 C.ar      1 UNK         0.0000 
      8 C8         -0.9395    5.8009    1.0952 C.3       1 UNK         0.0000 
      9 C9         -0.2121    4.9307    0.0589 C.3       1 UNK         0.0000 
     10 N10         0.8277    4.1011    0.6658 N.am      1 UNK         0.0000 
     11 O11         1.8881    4.6919    1.2542 O.3       1 UNK         0.0000 
     12 C12         2.5361    3.6553    1.9773 C.3       1 UNK         0.0000 
     13 H13         3.6244    3.8619    2.0334 H         1 UNK         0.0000 
     14 C14         2.0152    3.6931    3.4083 C.3       1 UNK         0.0000 
     15 C15         2.2608    2.3430    1.1922 C.3       1 UNK         0.0000 
     16 H16         2.9726    2.3600    0.3384 H         1 UNK         0.0000 
     17 C17         0.9017    2.7419    0.6228 C.2       1 UNK         0.0000 
     18 O18         0.0471    2.0202    0.0673 O.co2     1 UNK         0.0000 
     19 N19         2.3988    1.0379    1.9049 N.am      1 UNK         0.0000 
     20 C20         2.2875   -0.1302    1.1793 C.2       1 UNK         0.0000 
     21 O21         2.0800    0.0000    0.0000 O.co2     1 UNK         0.0000 
     22 C22         1.9549   -1.5106    1.7401 C.ar      1 UNK         0.0000 
     23 C23         0.9843   -2.3826    1.0791 C.ar      1 UNK         0.0000 
     24 O24         0.3013   -2.0202   -0.0673 O.co2     1 UNK         0.0000 
     25 C25         0.6180   -3.5982    1.6808 C.ar      1 UNK         0.0000 
     26 O26        -0.2707   -4.4080    1.0650 O.3       1 UNK         0.0000 
     27 C27         1.1403   -3.9474    2.9301 C.ar      1 UNK         0.0000 
     28 C28         2.0342   -3.0987    3.5811 C.ar      1 UNK         0.0000 
     29 C29         2.4451   -1.9051    2.9805 C.ar      1 UNK         0.0000 
     30 H30        -1.3558    8.7168    1.1001 H         1 UNK         0.0000 
     31 H31        -0.2016    6.4260    1.6421 H         1 UNK         0.0000 
     32 H32        -1.4233    5.1401    1.8136 H         1 UNK         0.0000 
     33 H33        -0.9482    4.3087   -0.4532 H         1 UNK         0.0000 
     34 H34         0.2623    5.5975   -0.6955 H         1 UNK         0.0000 
     35 H35         1.0005    3.2939    3.4463 H         1 UNK         0.0000 
     36 H36         2.6754    3.0928    4.0568 H         1 UNK         0.0000 
     37 H37         2.0043    4.7351    3.7991 H         1 UNK         0.0000 
     38 H38         2.4558    1.0097    2.9322 H         1 UNK         0.0000 
     39 H39        -0.5427   -5.2600    1.4378 H         1 UNK         0.0000 
     40 H40         0.8304   -4.8688    3.4115 H         1 UNK         0.0000 
     41 H41         2.4003   -3.3609    4.5648 H         1 UNK         0.0000 
     42 H42         3.1239   -1.2590    3.4879 H         1 UNK         0.0000 
     43 C43         2.0602    0.5509    8.0789 C.ar      1 UNK         0.0000 
     44 N44         3.1872   -0.0672    8.4852 N.2       1 UNK         0.0000 
     45 C45         3.8057   -0.4798    7.3670 C.ar      1 UNK         0.0000 
     46 N46         3.1142   -0.1385    6.2656 N.pl3     1 UNK         0.0000 
     47 H47         3.4006   -0.3242    5.2913 H         1 UNK         0.0000 
     48 C48         2.0089    0.4982    6.6976 C.ar      1 UNK         0.0000 
     49 C49         0.9263    1.0832    5.8152 C.3       1 UNK         0.0000 
     50 C50         0.2131    0.0472    4.9309 C.3       1 UNK         0.0000 
     51 N51        -0.8283    0.6491    4.1038 N.am      1 UNK         0.0000 
     52 O52        -1.8927    1.2350    4.6964 O.3       1 UNK         0.0000 
     53 C53        -2.5395    1.9635    3.6619 C.3       1 UNK         0.0000 
     54 H54        -3.6287    2.0163    3.8675 H         1 UNK         0.0000 
     55 C55        -2.0221    3.3957    3.7063 C.3       1 UNK         0.0000 
     56 C56        -2.2617    1.1855    2.3462 C.3       1 UNK         0.0000 
     57 H57        -2.9714    0.3301    2.3594 H         1 UNK         0.0000 
     58 C58        -0.9018    0.6175    2.7455 C.2       1 UNK         0.0000 
     59 O59        -0.0471    0.0673    2.0202 O.co2     1 UNK         0.0000 
     60 N60        -2.3986    1.9017    1.0426 N.3       1 UNK         0.0000 
     61 C61        -2.2872    1.1794   -0.1281 C.3       1 UNK         0.0000 
     62 O62        -2.0800    0.0000    0.0000 O.co2     1 UNK         0.0000 
     63 C63        -1.9523    1.7413   -1.5075 C.ar      1 UNK         0.0000 
     64 C64        -0.9818    1.0809   -2.3807 C.ar      1 UNK         0.0000 
     65 O65        -0.3013   -0.0673   -2.0202 O.co2     1 UNK         0.0000 
     66 C66        -0.6113    1.6859   -3.5935 C.ar      1 UNK         0.0000 
     67 O67         0.2748    1.0705   -4.4060 O.3       1 UNK         0.0000 
     68 C68        -1.1271    2.9408   -3.9365 C.ar      1 UNK         0.0000 
     69 C69        -2.0205    3.5901   -3.0864 C.ar      1 UNK         0.0000 
     70 C70        -2.4370    2.9841   -1.8978 C.ar      1 UNK         0.0000 
     71 H71         1.3369    1.0098    8.7364 H         1 UNK         0.0000 
     72 H72         0.1798    1.6044    6.4501 H         1 UNK         0.0000 
     73 H73         1.3968    1.8221    5.1658 H         1 UNK         0.0000 
     74 H74         0.9553   -0.4534    4.3057 H         1 UNK         0.0000 
     75 H75        -0.2563   -0.7172    5.5885 H         1 UNK         0.0000 
     76 H76        -1.0100    3.4401    3.3016 H         1 UNK         0.0000 
     77 H77        -2.6869    4.0454    3.1116 H         1 UNK         0.0000 
     78 H78        -2.0079    3.7842    4.7499 H         1 UNK         0.0000 
     79 H79        -2.4524    2.9294    1.0174 H         1 UNK         0.0000 
     80 H80         0.5447    1.4446   -5.2580 H         1 UNK         0.0000 
     81 H81        -0.8125    3.4257   -4.8536 H         1 UNK         0.0000 
     82 H82        -2.3807    4.5780   -3.3434 H         1 UNK         0.0000 
     83 H83        -3.1151    3.4881   -1.2483 H         1 UNK         0.0000 
     84 H84        -3.3589    1.0857   -0.3034 H         1 UNK         0.0000 
     85 H85         4.7417   -1.0145    7.4335 H         1 UNK         0.0000 
     86 H86        -4.7136    7.4860   -1.0362 H         1 UNK         0.0000 
@<TRIPOS>BOND
     1    1   18 nc   
     2    1   21 nc   
     3    1   24 nc   
     4    1   59 nc   
     5    1   62 nc   
     6    1   65 nc   
     7    2   30 1    
     8    2    3 ar   
     9    2    7 ar   
    10    3    4 ar   
    11    4    5 ar   
    12    4   86 1    
    13    5    7 ar   
    14    5    6 1    
    15    7    8 1    
    16    8   31 1    
    17    8   32 1    
    18    8    9 1    
    19    9   10 1    
    20    9   33 1    
    21    9   34 1    
    22   10   11 1    
    23   10   17 am   BACKBONE|DICT|INTERRES
    24   11   12 1    
    25   12   13 1    
    26   12   14 1    
    27   12   15 1    
    28   14   35 1    
    29   14   37 1    
    30   14   36 1    
    31   15   16 1    
    32   15   19 1    
    33   15   17 1    
    34   17   18 2    
    35   19   38 1    
    36   19   20 am   BACKBONE|DICT|INTERRES
    37   20   21 2    
    38   20   22 1    
    39   22   29 ar   
    40   22   23 ar   
    41   23   25 ar   
    42   23   24 1    
    43   25   27 ar   
    44   25   26 1    
    45   26   39 1    
    46   27   40 1    
    47   27   28 ar   
    48   28   41 1    
    49   28   29 ar   
    50   29   42 1    
    51   43   44 ar   
    52   43   71 1    
    53   43   48 ar   
    54   44   45 ar   
    55   45   46 ar   
    56   45   85 1    
    57   46   48 ar   
    58   46   47 1    
    59   48   49 1    
    60   49   72 1    
    61   49   50 1    
    62   49   73 1    
    63   50   75 1    
    64   50   51 1    
    65   50   74 1    
    66   51   52 1    
    67   51   58 am   BACKBONE|DICT|INTERRES
    68   52   53 1    
    69   53   55 1    
    70   53   54 1    
    71   53   56 1    
    72   55   78 1    
    73   55   76 1    
    74   55   77 1    
    75   56   57 1    
    76   56   58 1    
    77   56   60 1    
    78   58   59 2    
    79   60   61 1    
    80   60   79 1    
    81   61   63 1    
    82   61   62 1    
    83   61   84 1    
    84   63   64 ar   
    85   63   70 ar   
    86   64   65 1    
    87   64   66 ar   
    88   66   67 1    
    89   66   68 ar   
    90   67   80 1    
    91   68   69 ar   
    92   68   81 1    
    93   69   70 ar   
    94   69   82 1    
    95   70   83 1    
@<TRIPOS>SUBSTRUCTURE
     1 UNK         1 GROUP             0       ****    0 ROOT    
@<TRIPOS>MOLECULE
011_r5_c1
85   94    1
SMALL
USER_CHARGES


@<TRIPOS>ATOM
      1 Fe1         0.0000    0.0000    0.0000 Fe        1 UNK         0.0000 
      2 C2         -2.6705   -7.0462   -0.1676 C.ar      1 UNK         0.0000 
      3 N3         -3.9318   -7.5222   -0.1375 N.2       1 UNK         0.0000 
      4 C4         -4.3095   -7.4255    1.1510 C.ar      1 UNK         0.0000 
      5 N5         -3.3397   -6.9071    1.9297 N.pl3     1 UNK         0.0000 
      6 H6         -3.3922   -6.7357    2.9593 H         1 UNK         0.0000 
      7 C7         -2.3007   -6.6643    1.1055 C.ar      1 UNK         0.0000 
      8 C8         -0.9749   -6.0507    1.5177 C.3       1 UNK         0.0000 
      9 C9         -0.7330   -4.7490    0.7183 C.3       1 UNK         0.0000 
     10 N10         0.4454   -3.9714    1.1044 N.am      1 UNK         0.0000 
     11 O11         1.3332   -4.4855    1.9697 O.3       1 UNK         0.0000 
     12 C12         2.5505   -3.8300    1.6606 C.3       1 UNK         0.0000 
     13 H13         3.0373   -4.4881    0.9045 H         1 UNK         0.0000 
     14 C14         3.4480   -3.7850    2.8913 C.3       1 UNK         0.0000 
     15 C15         2.2516   -2.4641    0.9558 C.3       1 UNK         0.0000 
     16 H16         2.8807   -2.4213    0.0392 H         1 UNK         0.0000 
     17 C17         0.7899   -2.7503    0.6028 C.2       1 UNK         0.0000 
     18 O18         0.0260   -2.0350   -0.0925 O.co2     1 UNK         0.0000 
     19 N19         2.5187   -1.2217    1.7392 N.am      1 UNK         0.0000 
     20 C20         2.3454    0.0122    1.1618 C.2       1 UNK         0.0000 
     21 O21         2.0800    0.0000    0.0000 O.co2     1 UNK         0.0000 
     22 C22         2.0588    1.3453    1.8623 C.ar      1 UNK         0.0000 
     23 C23         1.0799    2.2873    1.2684 C.ar      1 UNK         0.0000 
     24 O24         0.3687    2.0350    0.0925 O.co2     1 UNK         0.0000 
     25 C25         0.6658    3.4073    2.0049 C.ar      1 UNK         0.0000 
     26 O26        -0.2334    4.2607    1.4692 O.3       1 UNK         0.0000 
     27 C27         1.1221    3.5971    3.3121 C.ar      1 UNK         0.0000 
     28 C28         1.9918    2.6802    3.9011 C.ar      1 UNK         0.0000 
     29 C29         2.4636    1.5720    3.1875 C.ar      1 UNK         0.0000 
     30 H30        -2.0709   -6.9668   -1.0621 H         1 UNK         0.0000 
     31 H31        -5.2841   -7.7287    1.5163 H         1 UNK         0.0000 
     32 H32        -1.0208   -5.8260    2.6073 H         1 UNK         0.0000 
     33 H33        -0.1555   -6.7766    1.3373 H         1 UNK         0.0000 
     34 H34        -0.6622   -4.9991   -0.3617 H         1 UNK         0.0000 
     35 H35        -1.6138   -4.1772    0.8789 H         1 UNK         0.0000 
     36 H36         4.4172   -3.3135    2.6323 H         1 UNK         0.0000 
     37 H37         3.6291   -4.8212    3.2482 H         1 UNK         0.0000 
     38 H38         2.9554   -3.2346    3.7203 H         1 UNK         0.0000 
     39 H39         2.8084   -1.2941    2.7052 H         1 UNK         0.0000 
     40 H40        -0.5616    5.0389    1.9461 H         1 UNK         0.0000 
     41 H41         0.7557    4.4356    3.8943 H         1 UNK         0.0000 
     42 H42         2.2734    2.8154    4.9378 H         1 UNK         0.0000 
     43 H43         3.0958    0.8617    3.7003 H         1 UNK         0.0000 
     44 C44         2.6729    0.1831    7.0468 C.ar      1 UNK         0.0000 
     45 N45         3.9369    0.1501    7.5191 N.2       1 UNK         0.0000 
     46 C46         4.3122   -1.1394    7.4144 C.ar      1 UNK         0.0000 
     47 N47         3.3405   -1.9166    6.9017 N.pl3     1 UNK         0.0000 
     48 H48         3.3912   -2.9429    6.7246 H         1 UNK         0.0000 
     49 C49         2.2926   -1.0918    6.6606 C.ar      1 UNK         0.0000 
     50 C50         0.9781   -1.4982    6.0525 C.3       1 UNK         0.0000 
     51 C51         0.7426   -0.7116    4.7441 C.3       1 UNK         0.0000 
     52 N52        -0.4398   -1.0984    3.9682 N.am      1 UNK         0.0000 
     53 O53        -1.3291   -1.9643    4.4848 O.3       1 UNK         0.0000 
     54 C54        -2.5434   -1.6592    3.8265 C.3       1 UNK         0.0000 
     55 H55        -3.0338   -0.9020    4.4801 H         1 UNK         0.0000 
     56 C56        -3.4447   -2.8892    3.7820 C.3       1 UNK         0.0000 
     57 C57        -2.2496   -0.9587    2.4603 C.3       1 UNK         0.0000 
     58 H58        -2.8744   -0.0432    2.4151 H         1 UNK         0.0000 
     59 C59        -0.7889   -0.5976    2.7491 C.2       1 UNK         0.0000 
     60 O60        -0.0260    0.0925    2.0350 O.co2     1 UNK         0.0000 
     61 N61        -2.5142   -1.7416    1.2195 N.am      1 UNK         0.0000 
     62 C62        -2.3453   -1.1623   -0.0145 C.2       1 UNK         0.0000 
     63 O63        -2.0800    0.0000    0.0000 O.co2     1 UNK         0.0000 
     64 C64        -2.0573   -1.8646   -1.3448 C.ar      1 UNK         0.0000 
     65 C65        -1.0767   -1.2705   -2.2848 C.ar      1 UNK         0.0000 
     66 O66        -0.3687   -0.0925   -2.0350 O.co2     1 UNK         0.0000 
     67 C67        -0.6552   -2.0125   -3.3999 C.ar      1 UNK         0.0000 
     68 O68         0.2521   -1.4814   -4.2479 O.3       1 UNK         0.0000 
     69 C69        -1.1080   -3.3212   -3.5861 C.ar      1 UNK         0.0000 
     70 C70        -1.9825   -3.9075   -2.6736 C.ar      1 UNK         0.0000 
     71 C71        -2.4600   -3.1897   -1.5700 C.ar      1 UNK         0.0000 
     72 H72         2.0774    1.0807    6.9760 H         1 UNK         0.0000 
     73 H73         5.2894   -1.5058    7.7112 H         1 UNK         0.0000 
     74 H74         1.0230   -2.5904    5.8314 H         1 UNK         0.0000 
     75 H75         0.1566   -1.3159    6.7771 H         1 UNK         0.0000 
     76 H76         0.6682    0.3713    4.9902 H         1 UNK         0.0000 
     77 H77         1.6218   -0.8756    4.1740 H         1 UNK         0.0000 
     78 H78        -4.4122   -2.6313    3.3049 H         1 UNK         0.0000 
     79 H79        -3.6342   -3.2430    4.8180 H         1 UNK         0.0000 
     80 H80        -2.9522   -3.7211    3.2356 H         1 UNK         0.0000 
     81 H81        -2.8051   -2.7083    1.2895 H         1 UNK         0.0000 
     82 H82         0.5940   -1.9634   -5.0164 H         1 UNK         0.0000 
     83 H83        -0.7339   -3.9071   -4.4201 H         1 UNK         0.0000 
     84 H84        -2.2634   -4.9448   -2.8044 H         1 UNK         0.0000 
     85 H85        -3.0951   -3.6996   -0.8594 H         1 UNK         0.0000 
@<TRIPOS>BOND
     1    1   18 nc   
     2    1   21 nc   
     3    1   24 nc   
     4    1   60 nc   
     5    1   63 nc   
     6    1   66 nc   
     7    2    3 ar   
     8    2    7 ar   
     9    2   30 1    
    10    3    4 ar   
    11    4   31 1    
    12    4    5 ar   
    13    5    6 1    
    14    5    7 ar   
    15    7    8 1    
    16    8   32 1    
    17    8    9 1    
    18    8   33 1    
    19    9   35 1    
    20    9   10 1    
    21    9   34 1    
    22   10   11 1    
    23   10   17 am   BACKBONE|DICT|INTERRES
    24   11   12 1    
    25   12   13 1    
    26   12   14 1    
    27   12   15 1    
    28   14   37 1    
    29   14   38 1    
    30   14   36 1    
    31   15   16 1    
    32   15   19 1    
    33   15   17 1    
    34   17   18 2    
    35   19   39 1    
    36   19   20 am   BACKBONE|DICT|INTERRES
    37   20   21 2    
    38   20   22 1    
    39   22   29 ar   
    40   22   23 ar   
    41   23   25 ar   
    42   23   24 1    
    43   25   27 ar   
    44   25   26 1    
    45   26   40 1    
    46   27   41 1    
    47   27   28 ar   
    48   28   42 1    
    49   28   29 ar   
    50   29   43 1    
    51   44   45 ar   
    52   44   49 ar   
    53   44   72 1    
    54   45   46 ar   
    55   46   73 1    
    56   46   47 ar   
    57   47   48 1    
    58   47   49 ar   
    59   49   50 1    
    60   50   75 1    
    61   50   51 1    
    62   50   74 1    
    63   51   76 1    
    64   51   52 1    
    65   51   77 1    
    66   52   53 1    
    67   52   59 am   BACKBONE|DICT|INTERRES
    68   53   54 1    
    69   54   55 1    
    70   54   56 1    
    71   54   57 1    
    72   56   79 1    
    73   56   78 1    
    74   56   80 1    
    75   57   58 1    
    76   57   59 1    
    77   57   61 1    
    78   59   60 2    
    79   61   81 1    
    80   61   62 am   BACKBONE|DICT|INTERRES
    81   62   64 1    
    82   62   63 2    
    83   64   65 ar   
    84   64   71 ar   
    85   65   66 1    
    86   65   67 ar   
    87   67   68 1    
    88   67   69 ar   
    89   68   82 1    
    90   69   70 ar   
    91   69   83 1    
    92   70   71 ar   
    93   70   84 1    
    94   71   85 1    
@<TRIPOS>SUBSTRUCTURE
     1 UNK         1 GROUP             0       ****    0 ROOT    
@<TRIPOS>MOLECULE
012_r1_c1
86   90    1
SMALL
USER_CHARGES


@<TRIPOS>ATOM
      1 Fe1        -0.7729    1.9212   -0.7669 Fe        1 UNK         0.0000 
      2 C2         -2.1800   -8.5758    3.3669 C.3       1 UNK         0.0000 
      3 C3         -1.4930   -7.4207    2.6439 C.3       1 UNK         0.0000 
      4 C4         -2.4385   -6.7670    1.6227 C.3       1 UNK         0.0000 
      5 C5         -1.7869   -5.6204    0.8287 C.3       1 UNK         0.0000 
      6 C6         -1.3759   -4.4424    1.7178 C.3       1 UNK         0.0000 
      7 C7         -0.7940   -3.3173    0.9013 C.2       1 UNK         0.0000 
      8 C8         -1.3306   -2.0864    0.9439 C.2       1 UNK         0.0000 
      9 C9         -0.8195   -0.8639    0.2674 C.2       1 UNK         0.0000 
     10 O10        -1.2884    0.2289    0.4550 O.co2     1 UNK         0.0000 
     11 N11         0.2044   -0.6492   -0.4793 N.am      1 UNK         0.0000 
     12 O12         0.1702    0.6936   -0.4994 O.co2     1 UNK         0.0000 
     13 C13         1.2695   -1.5609   -0.8866 C.3       1 UNK         0.0000 
     14 C14         2.5432   -0.9611   -1.5460 C.3       1 UNK         0.0000 
     15 C15         2.6859   -0.9611   -3.0956 C.3       1 UNK         0.0000 
     16 N16         2.2380    0.2351   -3.7848 N.am      1 UNK         0.0000 
     17 C17         0.9447    0.5781   -3.9774 C.2       1 UNK         0.0000 
     18 O18         0.0455   -0.1316   -3.5499 O.2       1 UNK         0.0000 
     19 C19         0.6029    1.8963   -4.6849 C.3       1 UNK         0.0000 
     20 C20         0.0182    2.9105   -3.6676 C.3       1 UNK         0.0000 
     21 O21        -0.9650    2.3260   -2.8727 O.co2     1 UNK         0.0000 
     22 C22         0.9384    3.0431   -2.5946 C.2       1 UNK         0.0000 
     23 O23         0.4263    2.3200   -1.5869 O.co2     1 UNK         0.0000 
     24 O24         2.0679    3.5072   -2.6196 O.co2     1 UNK         0.0000 
     25 C25        -0.4418    4.2917   -4.2159 C.3       1 UNK         0.0000 
     26 C26        -1.8224    4.6846   -3.7145 C.2       1 UNK         0.0000 
     27 O27        -2.7917    4.1074   -4.1883 O.2       1 UNK         0.0000 
     28 N28        -1.9966    5.6551   -2.7727 N.am      1 UNK         0.0000 
     29 C29        -3.3160    6.1007   -2.3436 C.3       1 UNK         0.0000 
     30 C30        -4.1720    5.0255   -1.6272 C.3       1 UNK         0.0000 
     31 C31        -3.7539    4.7008   -0.1814 C.3       1 UNK         0.0000 
     32 N32        -2.4959    3.9780   -0.0897 N.am      1 UNK         0.0000 
     33 O33        -2.2901    2.6854   -0.4216 O.co2     1 UNK         0.0000 
     34 C34        -1.3472    4.2881    0.4186 C.2       1 UNK         0.0000 
     35 O35        -0.6901    3.2733    0.3240 O.co2     1 UNK         0.0000 
     36 C36        -0.7754    5.5273    1.0109 C.2       1 UNK         0.0000 
     37 C37        -1.3157    6.7544    1.0814 C.2       1 UNK         0.0000 
     38 C38        -0.5645    7.8835    1.7372 C.3       1 UNK         0.0000 
     39 C39        -1.3283    8.3706    2.9705 C.3       1 UNK         0.0000 
     40 C40        -0.5561    9.4811    3.6903 C.3       1 UNK         0.0000 
     41 C41        -1.2966    9.9329    4.9534 C.3       1 UNK         0.0000 
     42 C42        -0.5173   11.0199    5.6871 C.3       1 UNK         0.0000 
     43 H43        -3.0728   -8.2092    3.9173 H         1 UNK         0.0000 
     44 H44        -1.4762   -9.0297    4.0963 H         1 UNK         0.0000 
     45 H45        -2.4928   -9.3562    2.6412 H         1 UNK         0.0000 
     46 H46        -0.5909   -7.8073    2.1221 H         1 UNK         0.0000 
     47 H47        -1.1769   -6.6832    3.4102 H         1 UNK         0.0000 
     48 H48        -3.3436   -6.3835    2.1435 H         1 UNK         0.0000 
     49 H49        -2.7612   -7.5423    0.8939 H         1 UNK         0.0000 
     50 H50        -2.5306   -5.2567    0.0862 H         1 UNK         0.0000 
     51 H51        -0.9011   -6.0044    0.2764 H         1 UNK         0.0000 
     52 H52        -0.5944   -4.7615    2.4370 H         1 UNK         0.0000 
     53 H53        -2.2615   -4.0980    2.2967 H         1 UNK         0.0000 
     54 H54         0.8760   -2.3907   -1.5103 H         1 UNK         0.0000 
     55 H55         1.6385   -1.9947    0.0705 H         1 UNK         0.0000 
     56 H56         3.3060   -1.7283   -1.2742 H         1 UNK         0.0000 
     57 H57         2.9059   -0.0287   -1.0637 H         1 UNK         0.0000 
     58 H58         3.7852   -0.9992   -3.2741 H         1 UNK         0.0000 
     59 H59         2.2661   -1.8815   -3.5545 H         1 UNK         0.0000 
     60 H60         2.9665    0.8503   -4.1785 H         1 UNK         0.0000 
     61 H61        -0.1145    1.6913   -5.5087 H         1 UNK         0.0000 
     62 H62         1.5128    2.3503   -5.1352 H         1 UNK         0.0000 
     63 H63         0.3152    5.0731   -3.9807 H         1 UNK         0.0000 
     64 H64        -0.5049    4.2671   -5.3252 H         1 UNK         0.0000 
     65 H65        -1.1700    6.1351   -2.3863 H         1 UNK         0.0000 
     66 H66        -3.8658    6.4379   -3.2496 H         1 UNK         0.0000 
     67 H67        -3.2192    6.9829   -1.6738 H         1 UNK         0.0000 
     68 H68        -4.2698    4.1022   -2.2320 H         1 UNK         0.0000 
     69 H69        -5.1925    5.4601   -1.5443 H         1 UNK         0.0000 
     70 H70        -4.5367    4.0647    0.2847 H         1 UNK         0.0000 
     71 H71        -3.7560    5.6235    0.4095 H         1 UNK         0.0000 
     72 H72        -0.4375    8.7103    1.0056 H         1 UNK         0.0000 
     73 H73         0.4476    7.5510    2.0593 H         1 UNK         0.0000 
     74 H74        -2.3315    8.7440    2.6674 H         1 UNK         0.0000 
     75 H75        -1.4611    7.5144    3.6693 H         1 UNK         0.0000 
     76 H76        -0.4255   10.3460    3.0032 H         1 UNK         0.0000 
     77 H77         0.4482    9.0980    3.9785 H         1 UNK         0.0000 
     78 H78        -1.4286    9.0665    5.6382 H         1 UNK         0.0000 
     79 H79        -2.2992   10.3270    4.6793 H         1 UNK         0.0000 
     80 H80        -1.0730   11.3252    6.5985 H         1 UNK         0.0000 
     81 H81        -0.3859   11.9085    5.0339 H         1 UNK         0.0000 
     82 H82         0.4813   10.6392    5.9913 H         1 UNK         0.0000 
     83 H83        -2.2295   -1.9087    1.5156 H         1 UNK         0.0000 
     84 H84         0.0653   -3.5104    0.2763 H         1 UNK         0.0000 
     85 H85        -2.2957    6.9376    0.6662 H         1 UNK         0.0000 
     86 H86         0.2053    5.5071    1.4629 H         1 UNK         0.0000 
@<TRIPOS>BOND
     1    1   10 nc   
     2    1   12 nc   
     3    1   21 nc   
     4    1   23 nc   
     5    1   33 nc   
     6    1   35 nc   
     7    2   43 1    
     8    2   44 1    
     9    2    3 1    
    10    2   45 1    
    11    3   47 1    
    12    3    4 1    
    13    3   46 1    
    14    4   48 1    
    15    4    5 1    
    16    4   49 1    
    17    5    6 1    
    18    5   50 1    
    19    5   51 1    
    20    6   53 1    
    21    6   52 1    
    22    6    7 1    
    23    7    8 2    
    24    7   84 1    
    25    8    9 1    
    26    8   83 1    
    27    9   10 2    
    28    9   11 am   BACKBONE|DICT|INTERRES
    29   11   12 1    
    30   11   13 1    
    31   13   55 1    
    32   13   14 1    
    33   13   54 1    
    34   14   56 1    
    35   14   57 1    
    36   14   15 1    
    37   15   16 1    
    38   15   58 1    
    39   15   59 1    
    40   16   17 am   BACKBONE|DICT|INTERRES
    41   16   60 1    
    42   17   18 2    
    43   17   19 1    
    44   19   20 1    
    45   19   61 1    
    46   19   62 1    
    47   20   21 1    
    48   20   22 1    
    49   20   25 1    
    50   22   23 1    
    51   22   24 2    
    52   25   63 1    
    53   25   26 1    
    54   25   64 1    
    55   26   28 am   BACKBONE|DICT|INTERRES
    56   26   27 2    
    57   28   65 1    
    58   28   29 1    
    59   29   67 1    
    60   29   30 1    
    61   29   66 1    
    62   30   69 1    
    63   30   31 1    
    64   30   68 1    
    65   31   32 1    
    66   31   70 1    
    67   31   71 1    
    68   32   34 am   BACKBONE|DICT|INTERRES
    69   32   33 1    
    70   34   36 1    
    71   34   35 2    
    72   36   37 2    
    73   36   86 1    
    74   37   38 1    
    75   37   85 1    
    76   38   73 1    
    77   38   39 1    
    78   38   72 1    
    79   39   75 1    
    80   39   40 1    
    81   39   74 1    
    82   40   77 1    
    83   40   41 1    
    84   40   76 1    
    85   41   78 1    
    86   41   42 1    
    87   41   79 1    
    88   42   82 1    
    89   42   80 1    
    90   42   81 1    
@<TRIPOS>SUBSTRUCTURE
     1 UNK         1 GROUP             0       ****    0 ROOT    
@<TRIPOS>MOLECULE
012_r3_c1
87   91    1
SMALL
USER_CHARGES


@<TRIPOS>ATOM
      1 Fe1         0.3226   -1.2724    0.8497 Fe        1 UNK         0.0000 
      2 C2         -0.4828    7.7423   -5.2611 C.3       1 UNK         0.0000 
      3 C3         -0.2602    6.4732   -4.4430 C.3       1 UNK         0.0000 
      4 C4         -0.6780    6.6829   -2.9799 C.3       1 UNK         0.0000 
      5 C5         -0.5146    5.4262   -2.1079 C.3       1 UNK         0.0000 
      6 C6          0.9467    4.9659   -1.9922 C.3       1 UNK         0.0000 
      7 C7          1.1082    3.8370   -1.0112 C.2       1 UNK         0.0000 
      8 C8          0.5366    2.6351   -1.1891 C.2       1 UNK         0.0000 
      9 C9          0.6931    1.4859   -0.2609 C.2       1 UNK         0.0000 
     10 O10         0.3085    0.3476   -0.5143 O.co2     1 UNK         0.0000 
     11 N11         1.2558    1.4306    0.9040 N.am      1 UNK         0.0000 
     12 O12         1.1476    0.1421    1.1271 O.co2     1 UNK         0.0000 
     13 C13         1.9122    2.3215    1.8384 C.3       1 UNK         0.0000 
     14 C14         1.0062    3.3730    2.5046 C.3       1 UNK         0.0000 
     15 C15        -0.3582    2.9015    3.0409 C.3       1 UNK         0.0000 
     16 N16        -0.3269    1.6659    3.8239 N.am      1 UNK         0.0000 
     17 C17        -1.2758    0.6965    3.6379 C.2       1 UNK         0.0000 
     18 O18        -2.1709    0.8840    2.8245 O.2       1 UNK         0.0000 
     19 C19        -1.3086   -0.6069    4.4415 C.3       1 UNK         0.0000 
     20 C20        -1.2207   -1.8779    3.5259 C.3       1 UNK         0.0000 
     21 O21        -0.0361   -1.8664    2.8033 O.3       1 UNK         0.0000 
     22 C22        -2.1351   -1.7814    2.3999 C.2       1 UNK         0.0000 
     23 O23        -1.4604   -1.5606    1.2553 O.co2     1 UNK         0.0000 
     24 O24        -3.3544   -1.7857    2.4705 O.co2     1 UNK         0.0000 
     25 C25        -1.3991   -3.2443    4.2637 C.3       1 UNK         0.0000 
     26 C26        -0.0877   -3.9720    4.4601 C.2       1 UNK         0.0000 
     27 O27         0.3405   -4.1517    5.5908 O.2       1 UNK         0.0000 
     28 N28         0.5967   -4.4215    3.3610 N.am      1 UNK         0.0000 
     29 C29         1.8872   -5.0767    3.4207 C.3       1 UNK         0.0000 
     30 C30         2.9689   -4.2897    2.6539 C.3       1 UNK         0.0000 
     31 C31         2.8843   -4.3039    1.1092 C.3       1 UNK         0.0000 
     32 N32         1.8146   -3.4767    0.5585 N.am      1 UNK         0.0000 
     33 O33         1.6522   -2.1647    0.7917 O.co2     1 UNK         0.0000 
     34 C34         0.8603   -3.6348   -0.3060 C.2       1 UNK         0.0000 
     35 O35         0.3240   -2.5323   -0.3651 O.co2     1 UNK         0.0000 
     36 C36         0.4195   -4.7811   -1.1498 C.2       1 UNK         0.0000 
     37 C37         0.9484   -6.0140   -1.2029 C.2       1 UNK         0.0000 
     38 C38         0.4289   -7.0592   -2.1535 C.3       1 UNK         0.0000 
     39 C39         1.5606   -7.4796   -3.1033 C.3       1 UNK         0.0000 
     40 C40         1.1668   -8.5956   -4.0818 C.3       1 UNK         0.0000 
     41 C41         0.0825   -8.1698   -5.0820 C.3       1 UNK         0.0000 
     42 C42        -0.2077   -9.2879   -6.0788 C.3       1 UNK         0.0000 
     43 H43         0.1211    8.5783   -4.8474 H         1 UNK         0.0000 
     44 H44        -0.1721    7.5675   -6.3127 H         1 UNK         0.0000 
     45 H45        -1.5562    8.0275   -5.2496 H         1 UNK         0.0000 
     46 H46        -0.8568    5.6472   -4.8870 H         1 UNK         0.0000 
     47 H47         0.8169    6.2132   -4.5046 H         1 UNK         0.0000 
     48 H48        -1.7507    6.9755   -2.9555 H         1 UNK         0.0000 
     49 H49        -0.0837    7.5130   -2.5381 H         1 UNK         0.0000 
     50 H50        -0.8852    5.6786   -1.0898 H         1 UNK         0.0000 
     51 H51        -1.1454    4.6056   -2.5131 H         1 UNK         0.0000 
     52 H52         1.3389    4.6389   -2.9773 H         1 UNK         0.0000 
     53 H53         1.5603    5.8203   -1.6319 H         1 UNK         0.0000 
     54 H54         2.2893    1.6843    2.6690 H         1 UNK         0.0000 
     55 H55         2.8059    2.7938    1.3800 H         1 UNK         0.0000 
     56 H56         0.7943    4.2140    1.8150 H         1 UNK         0.0000 
     57 H57         1.5954    3.7957    3.3479 H         1 UNK         0.0000 
     58 H58        -0.7593    3.7229    3.6730 H         1 UNK         0.0000 
     59 H59        -1.0414    2.8024    2.1700 H         1 UNK         0.0000 
     60 H60         0.3748    1.5581    4.5711 H         1 UNK         0.0000 
     61 H61        -2.2706   -0.6291    4.9982 H         1 UNK         0.0000 
     62 H62        -0.4854   -0.6293    5.1876 H         1 UNK         0.0000 
     63 H63         0.7092   -1.6882    3.4401 H         1 UNK         0.0000 
     64 H64        -1.9425   -3.0812    5.2196 H         1 UNK         0.0000 
     65 H65        -2.0196   -3.9486    3.6649 H         1 UNK         0.0000 
     66 H66         0.1764   -4.2929    2.4295 H         1 UNK         0.0000 
     67 H67         2.2255   -5.1621    4.4761 H         1 UNK         0.0000 
     68 H68         1.8086   -6.1063    3.0109 H         1 UNK         0.0000 
     69 H69         3.9308   -4.7913    2.9010 H         1 UNK         0.0000 
     70 H70         3.0342   -3.2472    3.0349 H         1 UNK         0.0000 
     71 H71         3.8402   -3.8738    0.7397 H         1 UNK         0.0000 
     72 H72         2.8614   -5.3436    0.7775 H         1 UNK         0.0000 
     73 H73         0.0844   -7.9367   -1.5654 H         1 UNK         0.0000 
     74 H74        -0.4309   -6.6648   -2.7345 H         1 UNK         0.0000 
     75 H75         2.4098   -7.8571   -2.4912 H         1 UNK         0.0000 
     76 H76         1.9168   -6.5961   -3.6784 H         1 UNK         0.0000 
     77 H77         0.8316   -9.4892   -3.5114 H         1 UNK         0.0000 
     78 H78         2.0798   -8.8716   -4.6545 H         1 UNK         0.0000 
     79 H79        -0.8606   -7.9240   -4.5516 H         1 UNK         0.0000 
     80 H80         0.4251   -7.2728   -5.6426 H         1 UNK         0.0000 
     81 H81         0.7102   -9.5430   -6.6506 H         1 UNK         0.0000 
     82 H82        -0.5701  -10.1936   -5.5476 H         1 UNK         0.0000 
     83 H83        -0.9898   -8.9562   -6.7936 H         1 UNK         0.0000 
     84 H84         1.7126    4.0233   -0.1357 H         1 UNK         0.0000 
     85 H85        -0.0852    2.4555   -2.0537 H         1 UNK         0.0000 
     86 H86         1.7691   -6.2780   -0.5524 H         1 UNK         0.0000 
     87 H87        -0.4205   -4.6674   -1.8190 H         1 UNK         0.0000 
@<TRIPOS>BOND
     1    1   10 nc   
     2    1   12 nc   
     3    1   21 nc   
     4    1   23 nc   
     5    1   33 nc   
     6    1   35 nc   
     7    2   45 1    
     8    2   43 1    
     9    2    3 1    
    10    2   44 1    
    11    3    4 1    
    12    3   46 1    
    13    3   47 1    
    14    4   48 1    
    15    4   49 1    
    16    4    5 1    
    17    5    6 1    
    18    5   50 1    
    19    5   51 1    
    20    6   53 1    
    21    6    7 1    
    22    6   52 1    
    23    7    8 2    
    24    7   84 1    
    25    8    9 1    
    26    8   85 1    
    27    9   11 am   BACKBONE|DICT|INTERRES
    28    9   10 2    
    29   11   12 1    
    30   11   13 1    
    31   13   14 1    
    32   13   54 1    
    33   13   55 1    
    34   14   15 1    
    35   14   57 1    
    36   14   56 1    
    37   15   58 1    
    38   15   16 1    
    39   15   59 1    
    40   16   60 1    
    41   16   17 am   BACKBONE|DICT|INTERRES
    42   17   19 1    
    43   17   18 2    
    44   19   61 1    
    45   19   62 1    
    46   19   20 1    
    47   20   21 1    
    48   20   25 1    
    49   20   22 1    
    50   21   63 1    
    51   22   24 2    
    52   22   23 1    
    53   25   26 1    
    54   25   64 1    
    55   25   65 1    
    56   26   27 2    
    57   26   28 am   BACKBONE|DICT|INTERRES
    58   28   29 1    
    59   28   66 1    
    60   29   67 1    
    61   29   30 1    
    62   29   68 1    
    63   30   69 1    
    64   30   70 1    
    65   30   31 1    
    66   31   32 1    
    67   31   71 1    
    68   31   72 1    
    69   32   33 1    
    70   32   34 am   BACKBONE|DICT|INTERRES
    71   34   35 2    
    72   34   36 1    
    73   36   37 2    
    74   36   87 1    
    75   37   38 1    
    76   37   86 1    
    77   38   73 1    
    78   38   39 1    
    79   38   74 1    
    80   39   75 1    
    81   39   40 1    
    82   39   76 1    
    83   40   77 1    
    84   40   41 1    
    85   40   78 1    
    86   41   79 1    
    87   41   42 1    
    88   41   80 1    
    89   42   82 1    
    90   42   81 1    
    91   42   83 1    
@<TRIPOS>SUBSTRUCTURE
     1 UNK         1 GROUP             0       ****    0 ROOT    
@<TRIPOS>MOLECULE
012_r4_c1
87   91    1
SMALL
USER_CHARGES


@<TRIPOS>ATOM
      1 Fe1        -0.1880    0.9394    0.9388 Fe        1 UNK         0.0000 
      2 C2          1.0068   -8.3150   -4.4962 C.3       1 UNK         0.0000 
      3 C3          0.7000   -7.0774   -3.6584 C.3       1 UNK         0.0000 
      4 C4          1.9922   -6.3900   -3.1813 C.3       1 UNK         0.0000 
      5 C5          1.7337   -5.1685   -2.2795 C.3       1 UNK         0.0000 
      6 C6          1.0055   -4.0340   -3.0161 C.3       1 UNK         0.0000 
      7 C7          0.7493   -2.8295   -2.1501 C.2       1 UNK         0.0000 
      8 C8         -0.0140   -2.9071   -1.0500 C.2       1 UNK         0.0000 
      9 C9         -0.3905   -1.7083   -0.2731 C.2       1 UNK         0.0000 
     10 O10        -0.0687   -0.5607   -0.5402 O.co2     1 UNK         0.0000 
     11 N11        -1.1683   -1.6959    0.7657 N.am      1 UNK         0.0000 
     12 O12        -1.4341   -0.4204    0.9849 O.co2     1 UNK         0.0000 
     13 C13        -1.7190   -2.7581    1.5788 C.3       1 UNK         0.0000 
     14 C14        -0.6493   -3.6171    2.2814 C.3       1 UNK         0.0000 
     15 C15         0.6348   -2.9233    2.7972 C.3       1 UNK         0.0000 
     16 N16         0.4518   -1.6982    3.5649 N.am      1 UNK         0.0000 
     17 C17         1.5343   -1.0818    4.1357 C.2       1 UNK         0.0000 
     18 O18         2.6271   -1.6333    4.1162 O.2       1 UNK         0.0000 
     19 C19         1.4539    0.3016    4.7700 C.3       1 UNK         0.0000 
     20 C20         1.3111    1.4207    3.6934 C.3       1 UNK         0.0000 
     21 O21         0.1677    1.2400    2.9384 O.co2     1 UNK         0.0000 
     22 C22         2.3030    1.2706    2.6252 C.2       1 UNK         0.0000 
     23 O23         1.7296    1.0888    1.4200 O.3       1 UNK         0.0000 
     24 O24         3.5123    1.3462    2.7780 O.2       1 UNK         0.0000 
     25 C25         1.3508    2.8800    4.2366 C.3       1 UNK         0.0000 
     26 C26        -0.0409    3.4624    4.3773 C.2       1 UNK         0.0000 
     27 O27        -0.8167    2.9846    5.1935 O.2       1 UNK         0.0000 
     28 N28        -0.4270    4.4843    3.5551 N.am      1 UNK         0.0000 
     29 C29        -1.7521    5.0689    3.5614 C.3       1 UNK         0.0000 
     30 C30        -2.3225    5.2803    2.1405 C.3       1 UNK         0.0000 
     31 C31        -2.7281    4.0377    1.3084 C.3       1 UNK         0.0000 
     32 N32        -1.6269    3.2784    0.7425 N.am      1 UNK         0.0000 
     33 O33        -1.3060    1.9905    0.9040 O.co2     1 UNK         0.0000 
     34 C34        -0.7170    3.4172   -0.1047 C.2       1 UNK         0.0000 
     35 O35        -0.2162    2.2984   -0.0745 O.co2     1 UNK         0.0000 
     36 C36        -0.3151    4.5286   -0.9961 C.2       1 UNK         0.0000 
     37 C37        -0.9957    5.6721   -1.1467 C.2       1 UNK         0.0000 
     38 C38        -0.5042    6.7233   -2.1040 C.3       1 UNK         0.0000 
     39 C39        -1.4479    7.9338   -2.1307 C.3       1 UNK         0.0000 
     40 C40        -1.0456    8.9924   -3.1702 C.3       1 UNK         0.0000 
     41 C41         0.3155    9.6439   -2.8842 C.3       1 UNK         0.0000 
     42 C42         0.6309   10.7223   -3.9170 C.3       1 UNK         0.0000 
     43 H43         1.5907   -8.0343   -5.3986 H         1 UNK         0.0000 
     44 H44         1.5840   -9.0531   -3.9003 H         1 UNK         0.0000 
     45 H45         0.0558   -8.7875   -4.8224 H         1 UNK         0.0000 
     46 H46         0.0982   -6.3890   -4.2862 H         1 UNK         0.0000 
     47 H47         0.0939   -7.3827   -2.7778 H         1 UNK         0.0000 
     48 H48         2.5822   -7.1254   -2.5918 H         1 UNK         0.0000 
     49 H49         2.6008   -6.0806   -4.0592 H         1 UNK         0.0000 
     50 H50         1.1480   -5.4967   -1.3940 H         1 UNK         0.0000 
     51 H51         2.7137   -4.7828   -1.9235 H         1 UNK         0.0000 
     52 H52         0.0179   -4.3827   -3.3803 H         1 UNK         0.0000 
     53 H53         1.6124   -3.7200   -3.8926 H         1 UNK         0.0000 
     54 H54        -2.3255   -2.2726    2.3747 H         1 UNK         0.0000 
     55 H55        -2.4037   -3.4058    0.9907 H         1 UNK         0.0000 
     56 H56        -0.2969   -4.3986    1.5746 H         1 UNK         0.0000 
     57 H57        -1.1576   -4.1475    3.1160 H         1 UNK         0.0000 
     58 H58         1.2709   -2.6693    1.9209 H         1 UNK         0.0000 
     59 H59         1.1820   -3.6772    3.4054 H         1 UNK         0.0000 
     60 H60        -0.4819   -1.2710    3.6375 H         1 UNK         0.0000 
     61 H61         2.4122    0.4956    5.3019 H         1 UNK         0.0000 
     62 H62         0.6414    0.3372    5.5266 H         1 UNK         0.0000 
     63 H63         1.9574    2.9606    5.1636 H         1 UNK         0.0000 
     64 H64         1.8659    3.5219    3.4873 H         1 UNK         0.0000 
     65 H65         0.2622    4.9015    2.9110 H         1 UNK         0.0000 
     66 H66        -1.6575    6.0838    4.0059 H         1 UNK         0.0000 
     67 H67        -2.4636    4.4942    4.1928 H         1 UNK         0.0000 
     68 H68        -1.6364    5.9364    1.5702 H         1 UNK         0.0000 
     69 H69        -3.2640    5.8513    2.2966 H         1 UNK         0.0000 
     70 H70        -3.3525    3.3755    1.9452 H         1 UNK         0.0000 
     71 H71        -3.3634    4.3740    0.4618 H         1 UNK         0.0000 
     72 H72        -0.4497    6.2791   -3.1220 H         1 UNK         0.0000 
     73 H73         0.5126    7.0371   -1.7882 H         1 UNK         0.0000 
     74 H74        -2.4677    7.5776   -2.3968 H         1 UNK         0.0000 
     75 H75        -1.4944    8.3984   -1.1210 H         1 UNK         0.0000 
     76 H76        -1.0358    8.5289   -4.1813 H         1 UNK         0.0000 
     77 H77        -1.8249    9.7858   -3.1607 H         1 UNK         0.0000 
     78 H78         1.1246    8.8854   -2.9222 H         1 UNK         0.0000 
     79 H79         0.3020   10.1068   -1.8736 H         1 UNK         0.0000 
     80 H80         1.6168   11.1796   -3.6895 H         1 UNK         0.0000 
     81 H81        -0.1440   11.5180   -3.8943 H         1 UNK         0.0000 
     82 H82         0.6704   10.2806   -4.9357 H         1 UNK         0.0000 
     83 H83         2.4120    0.9953    0.7513 H         1 UNK         0.0000 
     84 H84        -1.8995    5.8412   -0.5802 H         1 UNK         0.0000 
     85 H85         0.5990    4.3676   -1.5482 H         1 UNK         0.0000 
     86 H86         1.1960   -1.8875   -2.4320 H         1 UNK         0.0000 
     87 H87        -0.3725   -3.8668   -0.7081 H         1 UNK         0.0000 
@<TRIPOS>BOND
     1    1   10 nc   
     2    1   12 nc   
     3    1   21 nc   
     4    1   23 nc   
     5    1   33 nc   
     6    1   35 nc   
     7    2   44 1    
     8    2    3 1    
     9    2   43 1    
    10    2   45 1    
    11    3    4 1    
    12    3   47 1    
    13    3   46 1    
    14    4   48 1    
    15    4    5 1    
    16    4   49 1    
    17    5   51 1    
    18    5   50 1    
    19    5    6 1    
    20    6    7 1    
    21    6   52 1    
    22    6   53 1    
    23    7    8 2    
    24    7   86 1    
    25    8    9 1    
    26    8   87 1    
    27    9   11 am   BACKBONE|DICT|INTERRES
    28    9   10 2    
    29   11   12 1    
    30   11   13 1    
    31   13   14 1    
    32   13   54 1    
    33   13   55 1    
    34   14   15 1    
    35   14   57 1    
    36   14   56 1    
    37   15   59 1    
    38   15   16 1    
    39   15   58 1    
    40   16   60 1    
    41   16   17 am   BACKBONE|DICT|INTERRES
    42   17   19 1    
    43   17   18 2    
    44   19   61 1    
    45   19   62 1    
    46   19   20 1    
    47   20   21 1    
    48   20   25 1    
    49   20   22 1    
    50   22   24 2    
    51   22   23 1    
    52   23   83 1    
    53   25   26 1    
    54   25   63 1    
    55   25   64 1    
    56   26   27 2    
    57   26   28 am   BACKBONE|DICT|INTERRES
    58   28   29 1    
    59   28   65 1    
    60   29   66 1    
    61   29   67 1    
    62   29   30 1    
    63   30   69 1    
    64   30   31 1    
    65   30   68 1    
    66   31   70 1    
    67   31   32 1    
    68   31   71 1    
    69   32   33 1    
    70   32   34 am   BACKBONE|DICT|INTERRES
    71   34   35 2    
    72   34   36 1    
    73   36   37 2    
    74   36   85 1    
    75   37   38 1    
    76   37   84 1    
    77   38   73 1    
    78   38   39 1    
    79   38   72 1    
    80   39   75 1    
    81   39   40 1    
    82   39   74 1    
    83   40   77 1    
    84   40   41 1    
    85   40   76 1    
    86   41   79 1    
    87   41   42 1    
    88   41   78 1    
    89   42   81 1    
    90   42   80 1    
    91   42   82 1    
@<TRIPOS>SUBSTRUCTURE
     1 UNK         1 GROUP             0       ****    0 ROOT    
@<TRIPOS>MOLECULE
012_r5_c1
86   90    1
SMALL
USER_CHARGES


@<TRIPOS>ATOM
      1 Fe1         0.4210   -1.0895    0.7984 Fe        1 UNK         0.0000 
      2 C2          3.6651    8.1297   -5.0991 C.3       1 UNK         0.0000 
      3 C3          3.6457    6.6479   -4.7293 C.3       1 UNK         0.0000 
      4 C4          2.8629    6.4230   -3.4332 C.3       1 UNK         0.0000 
      5 C5          2.7968    4.9351   -3.0573 C.3       1 UNK         0.0000 
      6 C6          1.9550    4.7632   -1.7923 C.3       1 UNK         0.0000 
      7 C7          1.7432    3.3211   -1.4094 C.2       1 UNK         0.0000 
      8 C8          0.9098    3.0604   -0.3958 C.2       1 UNK         0.0000 
      9 C9          0.5191    1.6985    0.0421 C.2       1 UNK         0.0000 
     10 O10         0.9425    0.6418   -0.3880 O.co2     1 UNK         0.0000 
     11 N11        -0.4842    1.4273    0.8090 N.am      1 UNK         0.0000 
     12 O12        -0.5795    0.1128    0.5570 O.co2     1 UNK         0.0000 
     13 C13        -1.5432    2.3840    1.1291 C.3       1 UNK         0.0000 
     14 C14        -2.7241    1.9184    2.0047 C.3       1 UNK         0.0000 
     15 C15        -2.4784    1.7394    3.5149 C.3       1 UNK         0.0000 
     16 N16        -2.0753    0.3913    3.8460 N.am      1 UNK         0.0000 
     17 C17        -0.9856    0.0699    4.5960 C.2       1 UNK         0.0000 
     18 O18        -0.2507    0.9465    5.0280 O.2       1 UNK         0.0000 
     19 C19        -0.6764   -1.3844    4.9214 C.3       1 UNK         0.0000 
     20 C20        -0.2975   -2.2047    3.6586 C.3       1 UNK         0.0000 
     21 O21         0.6205   -1.5081    2.8770 O.co2     1 UNK         0.0000 
     22 C22        -1.2983   -2.1919    2.6418 C.2       1 UNK         0.0000 
     23 O23        -0.7912   -1.5075    1.5921 O.co2     1 UNK         0.0000 
     24 O24        -2.4095   -2.6976    2.6753 O.co2     1 UNK         0.0000 
     25 C25         0.1709   -3.6643    3.9451 C.3       1 UNK         0.0000 
     26 C26         1.6375   -3.8832    3.6352 C.2       1 UNK         0.0000 
     27 O27         2.4806   -3.2603    4.2659 O.2       1 UNK         0.0000 
     28 N28         2.0076   -4.7736    2.6701 N.am      1 UNK         0.0000 
     29 C29         3.3895   -5.0569    2.3308 C.3       1 UNK         0.0000 
     30 C30         3.6453   -5.0288    0.8136 C.3       1 UNK         0.0000 
     31 C31         3.5935   -3.6548    0.1105 C.3       1 UNK         0.0000 
     32 N32         2.2762   -3.0506    0.0391 N.am      1 UNK         0.0000 
     33 O33         1.9140   -1.8559    0.4673 O.co2     1 UNK         0.0000 
     34 C34         1.1863   -3.3593   -0.5436 C.2       1 UNK         0.0000 
     35 O35         0.4199   -2.4200   -0.3149 O.co2     1 UNK         0.0000 
     36 C36         0.9685   -4.5628   -1.3705 C.2       1 UNK         0.0000 
     37 C37        -0.1547   -4.8567   -2.0342 C.2       1 UNK         0.0000 
     38 C38        -0.1632   -6.1252   -2.8483 C.3       1 UNK         0.0000 
     39 C39        -1.4593   -6.3561   -3.6249 C.3       1 UNK         0.0000 
     40 C40        -1.3383   -7.6559   -4.4342 C.3       1 UNK         0.0000 
     41 C41        -2.5910   -7.9356   -5.2663 C.3       1 UNK         0.0000 
     42 C42        -2.4319   -9.2290   -6.0629 C.3       1 UNK         0.0000 
     43 H43         2.6293    8.5042   -5.2486 H         1 UNK         0.0000 
     44 H44         4.1521    8.7229   -4.2960 H         1 UNK         0.0000 
     45 H45         4.2321    8.2725   -6.0426 H         1 UNK         0.0000 
     46 H46         3.1659    6.0811   -5.5570 H         1 UNK         0.0000 
     47 H47         4.6892    6.2884   -4.6042 H         1 UNK         0.0000 
     48 H48         3.3425    6.9924   -2.6064 H         1 UNK         0.0000 
     49 H49         1.8274    6.8066   -3.5740 H         1 UNK         0.0000 
     50 H50         3.8194    4.5325   -2.8909 H         1 UNK         0.0000 
     51 H51         2.3169    4.3736   -3.8895 H         1 UNK         0.0000 
     52 H52         2.4250    5.3072   -0.9434 H         1 UNK         0.0000 
     53 H53         0.9530    5.2081   -1.9879 H         1 UNK         0.0000 
     54 H54        -1.1063    3.2939    1.5932 H         1 UNK         0.0000 
     55 H55        -1.9979    2.6881    0.1591 H         1 UNK         0.0000 
     56 H56        -3.4277    2.7796    1.9449 H         1 UNK         0.0000 
     57 H57        -3.2613    1.0487    1.5681 H         1 UNK         0.0000 
     58 H58        -3.4614    1.8806    4.0164 H         1 UNK         0.0000 
     59 H59        -1.7974    2.5244    3.9086 H         1 UNK         0.0000 
     60 H60        -2.7163   -0.3535    3.5452 H         1 UNK         0.0000 
     61 H61        -1.5386   -1.8474    5.4476 H         1 UNK         0.0000 
     62 H62         0.1963   -1.4108    5.6113 H         1 UNK         0.0000 
     63 H63        -0.4172   -4.3831    3.3311 H         1 UNK         0.0000 
     64 H64        -0.0408   -3.9405    5.0004 H         1 UNK         0.0000 
     65 H65         1.2797   -5.3206    2.1856 H         1 UNK         0.0000 
     66 H66         3.6019   -6.0955    2.6659 H         1 UNK         0.0000 
     67 H67         4.1030   -4.3859    2.8566 H         1 UNK         0.0000 
     68 H68         4.6842   -5.4012    0.6751 H         1 UNK         0.0000 
     69 H69         2.9764   -5.7594    0.3193 H         1 UNK         0.0000 
     70 H70         3.9624   -3.7858   -0.9294 H         1 UNK         0.0000 
     71 H71         4.2891   -2.9621    0.6313 H         1 UNK         0.0000 
     72 H72         0.6766   -6.0733   -3.5770 H         1 UNK         0.0000 
     73 H73         0.0126   -6.9862   -2.1647 H         1 UNK         0.0000 
     74 H74        -2.3148   -6.4278   -2.9182 H         1 UNK         0.0000 
     75 H75        -1.6294   -5.5020   -4.3166 H         1 UNK         0.0000 
     76 H76        -0.4640   -7.5789   -5.1198 H         1 UNK         0.0000 
     77 H77        -1.1655   -8.5068   -3.7368 H         1 UNK         0.0000 
     78 H78        -2.7624   -7.0959   -5.9744 H         1 UNK         0.0000 
     79 H79        -3.4727   -8.0279   -4.5962 H         1 UNK         0.0000 
     80 H80        -2.2750  -10.0893   -5.3769 H         1 UNK         0.0000 
     81 H81        -1.5634   -9.1547   -6.7527 H         1 UNK         0.0000 
     82 H82        -3.3464   -9.4151   -6.6634 H         1 UNK         0.0000 
     83 H83        -1.0067   -4.1959   -1.9730 H         1 UNK         0.0000 
     84 H84         1.8133   -5.2342   -1.4148 H         1 UNK         0.0000 
     85 H85         2.2383    2.5106   -1.9236 H         1 UNK         0.0000 
     86 H86         0.4717    3.8724    0.1656 H         1 UNK         0.0000 
@<TRIPOS>BOND
     1    1   10 nc   
     2    1   12 nc   
     3    1   21 nc   
     4    1   23 nc   
     5    1   33 nc   
     6    1   35 nc   
     7    2    3 1    
     8    2   44 1    
     9    2   43 1    
    10    2   45 1    
    11    3   47 1    
    12    3    4 1    
    13    3   46 1    
    14    4    5 1    
    15    4   48 1    
    16    4   49 1    
    17    5   50 1    
    18    5    6 1    
    19    5   51 1    
    20    6    7 1    
    21    6   52 1    
    22    6   53 1    
    23    7    8 2    
    24    7   85 1    
    25    8    9 1    
    26    8   86 1    
    27    9   11 am   BACKBONE|DICT|INTERRES
    28    9   10 2    
    29   11   13 1    
    30   11   12 1    
    31   13   54 1    
    32   13   14 1    
    33   13   55 1    
    34   14   15 1    
    35   14   56 1    
    36   14   57 1    
    37   15   16 1    
    38   15   59 1    
    39   15   58 1    
    40   16   17 am   BACKBONE|DICT|INTERRES
    41   16   60 1    
    42   17   19 1    
    43   17   18 2    
    44   19   61 1    
    45   19   62 1    
    46   19   20 1    
    47   20   21 1    
    48   20   25 1    
    49   20   22 1    
    50   22   24 2    
    51   22   23 1    
    52   25   64 1    
    53   25   26 1    
    54   25   63 1    
    55   26   27 2    
    56   26   28 am   BACKBONE|DICT|INTERRES
    57   28   29 1    
    58   28   65 1    
    59   29   66 1    
    60   29   67 1    
    61   29   30 1    
    62   30   31 1    
    63   30   68 1    
    64   30   69 1    
    65   31   71 1    
    66   31   32 1    
    67   31   70 1    
    68   32   33 1    
    69   32   34 am   BACKBONE|DICT|INTERRES
    70   34   35 2    
    71   34   36 1    
    72   36   37 2    
    73   36   84 1    
    74   37   38 1    
    75   37   83 1    
    76   38   73 1    
    77   38   39 1    
    78   38   72 1    
    79   39   74 1    
    80   39   40 1    
    81   39   75 1    
    82   40   77 1    
    83   40   41 1    
    84   40   76 1    
    85   41   79 1    
    86   41   42 1    
    87   41   78 1    
    88   42   80 1    
    89   42   81 1    
    90   42   82 1    
@<TRIPOS>SUBSTRUCTURE
     1 UNK         1 GROUP             0       ****    0 ROOT    
@<TRIPOS>MOLECULE
013_c1
96   101    1
SMALL
USER_CHARGES


@<TRIPOS>ATOM
      1 Fe1         0.4064   -0.8070    0.1851 Fe        1 UNK         0.0000 
      2 C2          3.3720    1.5818   -3.9884 C.ar      1 UNK         0.0000 
      3 C3          3.5670    1.9449   -5.3242 C.ar      1 UNK         0.0000 
      4 C4          3.4959    3.2883   -5.7023 C.ar      1 UNK         0.0000 
      5 C5          3.2309    4.2712   -4.7448 C.ar      1 UNK         0.0000 
      6 C6          3.0352    3.9129   -3.4078 C.ar      1 UNK         0.0000 
      7 C7          3.1011    2.5634   -3.0195 C.ar      1 UNK         0.0000 
      8 C8          2.8919    2.1712   -1.5813 C.3       1 UNK         0.0000 
      9 C9          1.7308    1.2253   -1.4243 C.2       1 UNK         0.0000 
     10 O10         1.8164    0.0940   -1.0027 O.co2     1 UNK         0.0000 
     11 N11         0.4875    1.4344   -1.6897 N.am      1 UNK         0.0000 
     12 O12        -0.0924    0.3020   -1.3068 O.co2     1 UNK         0.0000 
     13 C13        -0.1811    2.6203   -2.1926 C.3       1 UNK         0.0000 
     14 C14        -0.4529    3.6293   -1.0730 C.3       1 UNK         0.0000 
     15 C15        -1.5379    3.1089   -0.1184 C.3       1 UNK         0.0000 
     16 C16        -1.8061    4.1010    1.0171 C.3       1 UNK         0.0000 
     17 C17        -3.0072    3.6849    1.8765 C.3       1 UNK         0.0000 
     18 N18        -2.8222    2.3608    2.4500 N.am      1 UNK         0.0000 
     19 C19        -3.7169    1.3387    2.2705 C.2       1 UNK         0.0000 
     20 O20        -4.7268    1.5220    1.6058 O.2       1 UNK         0.0000 
     21 C21        -3.5448   -0.0375    2.8961 C.3       1 UNK         0.0000 
     22 C22        -2.2337   -0.2702    3.6611 C.3       1 UNK         0.0000 
     23 C23        -1.0323   -0.3011    2.7465 C.2       1 UNK         0.0000 
     24 O24        -1.0661   -0.2801    1.5394 O.co2     1 UNK         0.0000 
     25 N25         0.2010   -0.3993    3.0996 N.am      1 UNK         0.0000 
     26 O26         0.8903   -0.4062    1.9626 O.co2     1 UNK         0.0000 
     27 C27         0.7560   -0.5338    4.4270 C.3       1 UNK         0.0000 
     28 C28         1.4498   -1.8825    4.5143 C.3       1 UNK         0.0000 
     29 C29         1.9884   -2.1485    5.9168 C.3       1 UNK         0.0000 
     30 C30         2.7735   -3.4630    6.0132 C.3       1 UNK         0.0000 
     31 C31         1.9544   -4.7511    5.7704 C.3       1 UNK         0.0000 
     32 N32         1.4580   -4.9280    4.4082 N.am      1 UNK         0.0000 
     33 C33         2.2739   -5.0299    3.3212 C.2       1 UNK         0.0000 
     34 O34         3.4845   -4.9153    3.4472 O.2       1 UNK         0.0000 
     35 C35         1.7311   -5.3956    1.9568 C.3       1 UNK         0.0000 
     36 C36         2.1149   -4.4104    0.8314 C.3       1 UNK         0.0000 
     37 C37         1.0407   -3.4406    0.3914 C.2       1 UNK         0.0000 
     38 O38         1.0596   -2.2121    0.3162 O.co2     1 UNK         0.0000 
     39 N39        -0.0596   -3.6445   -0.1157 N.am      1 UNK         0.0000 
     40 O40        -0.1696   -2.3395   -0.3980 O.co2     1 UNK         0.0000 
     41 C41        -0.9445   -4.7646   -0.3867 C.3       1 UNK         0.0000 
     42 C42        -0.3244   -5.8071   -1.3149 C.3       1 UNK         0.0000 
     43 C43        -1.3524   -6.9084   -1.6053 C.3       1 UNK         0.0000 
     44 C44        -0.7854   -7.9821   -2.5359 C.3       1 UNK         0.0000 
     45 C45        -1.8380   -9.0641   -2.8150 C.3       1 UNK         0.0000 
     46 N46        -1.3062  -10.0945   -3.7051 N.4       1 UNK         0.0000 
     47 H47        -1.0298   -9.6700   -4.6199 H         1 UNK         0.0000 
     48 H48        -2.0462  -10.8135   -3.8746 H         1 UNK         0.0000 
     49 H49        -0.4785  -10.5568   -3.2639 H         1 UNK         0.0000 
     50 H50         3.4302    0.5372   -3.7081 H         1 UNK         0.0000 
     51 H51         3.7733    1.1845   -6.0660 H         1 UNK         0.0000 
     52 H52         3.6469    3.5678   -6.7368 H         1 UNK         0.0000 
     53 H53         3.1769    5.3114   -5.0387 H         1 UNK         0.0000 
     54 H54         2.8299    4.6864   -2.6781 H         1 UNK         0.0000 
     55 H55         2.7145    3.0624   -0.9432 H         1 UNK         0.0000 
     56 H56         3.8176    1.6755   -1.2172 H         1 UNK         0.0000 
     57 H57         0.4323    3.0746   -2.9953 H         1 UNK         0.0000 
     58 H58        -1.1477    2.3373   -2.6634 H         1 UNK         0.0000 
     59 H59         0.4886    3.8569   -0.5300 H         1 UNK         0.0000 
     60 H60        -0.8266    4.5703   -1.5329 H         1 UNK         0.0000 
     61 H61        -1.2290    2.1369    0.3197 H         1 UNK         0.0000 
     62 H62        -2.4736    2.9575   -0.7010 H         1 UNK         0.0000 
     63 H63        -0.8955    4.1820    1.6503 H         1 UNK         0.0000 
     64 H64        -2.0290    5.1054    0.5946 H         1 UNK         0.0000 
     65 H65        -3.9272    3.7388    1.2551 H         1 UNK         0.0000 
     66 H66        -3.1183    4.4223    2.7004 H         1 UNK         0.0000 
     67 H67        -1.9849    2.2298    3.0322 H         1 UNK         0.0000 
     68 H68        -4.3916   -0.1825    3.6011 H         1 UNK         0.0000 
     69 H69        -3.6282   -0.8139    2.1041 H         1 UNK         0.0000 
     70 H70        -2.1231    0.5158    4.4378 H         1 UNK         0.0000 
     71 H71        -2.2801   -1.2504    4.1820 H         1 UNK         0.0000 
     72 H72         1.4735    0.2928    4.6197 H         1 UNK         0.0000 
     73 H73        -0.0469   -0.4865    5.1938 H         1 UNK         0.0000 
     74 H74         2.2813   -1.9153    3.7758 H         1 UNK         0.0000 
     75 H75         0.6931   -2.6460    4.2538 H         1 UNK         0.0000 
     76 H76         2.6828   -1.3233    6.1906 H         1 UNK         0.0000 
     77 H77         1.1514   -2.1557    6.6490 H         1 UNK         0.0000 
     78 H78         3.1643   -3.5205    7.0526 H         1 UNK         0.0000 
     79 H79         3.6564   -3.4184    5.3444 H         1 UNK         0.0000 
     80 H80         1.0993   -4.7676    6.4816 H         1 UNK         0.0000 
     81 H81         2.6059   -5.6187    6.0132 H         1 UNK         0.0000 
     82 H82         0.4415   -5.0455    4.2808 H         1 UNK         0.0000 
     83 H83         0.6438   -5.6155    1.9521 H         1 UNK         0.0000 
     84 H84         2.2434   -6.3562    1.7292 H         1 UNK         0.0000 
     85 H85         3.0710   -3.8962    1.0621 H         1 UNK         0.0000 
     86 H86         2.3113   -5.0115   -0.0808 H         1 UNK         0.0000 
     87 H87        -1.8692   -4.3747   -0.8680 H         1 UNK         0.0000 
     88 H88        -1.2411   -5.2357    0.5737 H         1 UNK         0.0000 
     89 H89        -0.0212   -5.3190   -2.2665 H         1 UNK         0.0000 
     90 H90         0.5675   -6.2594   -0.8347 H         1 UNK         0.0000 
     91 H91        -1.6625   -7.3830   -0.6474 H         1 UNK         0.0000 
     92 H92        -2.2495   -6.4539   -2.0826 H         1 UNK         0.0000 
     93 H93         0.1057   -8.4478   -2.0611 H         1 UNK         0.0000 
     94 H94        -0.4781   -7.5122   -3.4959 H         1 UNK         0.0000 
     95 H95        -2.1521   -9.5343   -1.8561 H         1 UNK         0.0000 
     96 H96        -2.7332   -8.5997   -3.2864 H         1 UNK         0.0000 
@<TRIPOS>BOND
     1    1   10 nc   
     2    1   12 nc   
     3    1   24 nc   
     4    1   26 nc   
     5    1   38 nc   
     6    1   40 nc   
     7    2   50 1    
     8    2    7 ar   
     9    2    3 ar   
    10    3    4 ar   
    11    3   51 1    
    12    4    5 ar   
    13    4   52 1    
    14    5    6 ar   
    15    5   53 1    
    16    6    7 ar   
    17    6   54 1    
    18    7    8 1    
    19    8   56 1    
    20    8   55 1    
    21    8    9 1    
    22    9   10 2    
    23    9   11 am   BACKBONE|DICT|INTERRES
    24   11   12 1    
    25   11   13 1    
    26   13   14 1    
    27   13   57 1    
    28   13   58 1    
    29   14   59 1    
    30   14   15 1    
    31   14   60 1    
    32   15   61 1    
    33   15   16 1    
    34   15   62 1    
    35   16   63 1    
    36   16   17 1    
    37   16   64 1    
    38   17   18 1    
    39   17   66 1    
    40   17   65 1    
    41   18   67 1    
    42   18   19 am   BACKBONE|DICT|INTERRES
    43   19   21 1    
    44   19   20 2    
    45   21   68 1    
    46   21   22 1    
    47   21   69 1    
    48   22   71 1    
    49   22   70 1    
    50   22   23 1    
    51   23   25 am   BACKBONE|DICT|INTERRES
    52   23   24 2    
    53   25   27 1    
    54   25   26 1    
    55   27   28 1    
    56   27   72 1    
    57   27   73 1    
    58   28   29 1    
    59   28   74 1    
    60   28   75 1    
    61   29   30 1    
    62   29   76 1    
    63   29   77 1    
    64   30   78 1    
    65   30   31 1    
    66   30   79 1    
    67   31   81 1    
    68   31   80 1    
    69   31   32 1    
    70   32   33 am   BACKBONE|DICT|INTERRES
    71   32   82 1    
    72   33   34 2    
    73   33   35 1    
    74   35   36 1    
    75   35   83 1    
    76   35   84 1    
    77   36   85 1    
    78   36   37 1    
    79   36   86 1    
    80   37   38 2    
    81   37   39 am   BACKBONE|DICT|INTERRES
    82   39   40 1    
    83   39   41 1    
    84   41   88 1    
    85   41   42 1    
    86   41   87 1    
    87   42   90 1    
    88   42   43 1    
    89   42   89 1    
    90   43   91 1    
    91   43   44 1    
    92   43   92 1    
    93   44   93 1    
    94   44   45 1    
    95   44   94 1    
    96   45   95 1    
    97   45   46 1    
    98   45   96 1    
    99   46   49 1    
   100   46   47 1    
   101   46   48 1    
@<TRIPOS>SUBSTRUCTURE
     1 UNK         1 GROUP             0       ****    0 ROOT    
@<TRIPOS>MOLECULE
014_c1
100   105    1
SMALL
USER_CHARGES


@<TRIPOS>ATOM
      1 Fe1        -0.0078   -0.2784    0.5414 Fe        1 UNK         0.0000 
      2 C2         -2.5127    4.5204   -2.7183 C.ar      1 UNK         0.0000 
      3 C3         -2.7429    5.4189   -3.7620 C.ar      1 UNK         0.0000 
      4 C4         -2.6386    4.9904   -5.0856 C.ar      1 UNK         0.0000 
      5 C5         -2.3188    3.6582   -5.3668 C.ar      1 UNK         0.0000 
      6 C6         -2.0895    2.7532   -4.3227 C.ar      1 UNK         0.0000 
      7 C7         -2.1547    3.1856   -2.9884 C.ar      1 UNK         0.0000 
      8 C8         -1.9701    2.2239   -1.8491 C.3       1 UNK         0.0000 
      9 C9         -0.7158    1.4104   -1.5267 C.2       1 UNK         0.0000 
     10 O10        -0.8354    0.5636   -0.6562 O.co2     1 UNK         0.0000 
     11 N11         0.5422    1.3090   -1.9098 N.am      1 UNK         0.0000 
     12 O12         0.8848    0.2141   -1.1933 O.co2     1 UNK         0.0000 
     13 C13         1.5143    1.9292   -2.8304 C.3       1 UNK         0.0000 
     14 C14         1.2397    3.1852   -3.6898 C.3       1 UNK         0.0000 
     15 C15         1.7034    4.6094   -3.2575 C.3       1 UNK         0.0000 
     16 C16         0.8676    5.3913   -2.2412 C.3       1 UNK         0.0000 
     17 C17         1.2260    5.1456   -0.7840 C.3       1 UNK         0.0000 
     18 N18         0.2483    5.8233    0.0706 N.am      1 UNK         0.0000 
     19 C19        -0.4955    5.1865    1.0257 C.2       1 UNK         0.0000 
     20 O20        -1.3278    5.8109    1.6666 O.2       1 UNK         0.0000 
     21 C21        -0.2541    3.7422    1.3030 C.3       1 UNK         0.0000 
     22 C22        -1.1070    3.0142    2.3451 C.3       1 UNK         0.0000 
     23 C23        -0.4746    1.6537    2.3872 C.2       1 UNK         0.0000 
     24 O24        -0.5277    0.8027    1.5095 O.co2     1 UNK         0.0000 
     25 N25         0.5981    1.3796    3.0091 N.am      1 UNK         0.0000 
     26 O26         0.8866    0.2910    2.2951 O.co2     1 UNK         0.0000 
     27 C27         0.9087    1.6851    4.3980 C.3       1 UNK         0.0000 
     28 C28         0.1384    0.6973    5.2768 C.3       1 UNK         0.0000 
     29 C29         0.2133    0.9317    6.7911 C.3       1 UNK         0.0000 
     30 C30        -0.6639   -0.0795    7.5831 C.3       1 UNK         0.0000 
     31 C31        -0.0985   -1.5187    7.7264 C.3       1 UNK         0.0000 
     32 N32         0.1999   -2.1561    6.4570 N.am      1 UNK         0.0000 
     33 C33        -0.7254   -2.4487    5.5000 C.2       1 UNK         0.0000 
     34 O34        -1.9157   -2.2681    5.7053 O.2       1 UNK         0.0000 
     35 C35        -0.2209   -2.8727    4.1346 C.3       1 UNK         0.0000 
     36 C36        -1.2900   -2.9264    3.0242 C.3       1 UNK         0.0000 
     37 C37        -0.6472   -2.5538    1.7128 C.2       1 UNK         0.0000 
     38 O38        -0.8625   -1.5495    1.0602 O.co2     1 UNK         0.0000 
     39 N39         0.2924   -3.0539    1.0635 N.am      1 UNK         0.0000 
     40 O40         0.4077   -1.9925    0.2329 O.co2     1 UNK         0.0000 
     41 C41         1.0558   -4.2758    1.1849 C.3       1 UNK         0.0000 
     42 C42         0.6727   -5.1948    0.0259 C.3       1 UNK         0.0000 
     43 C43         1.3653   -6.5564    0.1185 C.3       1 UNK         0.0000 
     44 C44         0.7892   -7.5163   -0.9297 C.3       1 UNK         0.0000 
     45 C45         1.4757   -8.8868   -0.8623 C.3       1 UNK         0.0000 
     46 N46         0.8882   -9.8206   -1.8074 N.am      1 UNK         0.0000 
     47 C47        -0.3814  -10.3044   -1.6841 C.2       1 UNK         0.0000 
     48 O48        -1.0901   -9.9673   -0.7471 O.2       1 UNK         0.0000 
     49 C49        -0.9291  -11.2788   -2.6846 C.3       1 UNK         0.0000 
     50 H50        -2.6069    4.8720   -1.6971 H         1 UNK         0.0000 
     51 H51        -3.0042    6.4464   -3.5414 H         1 UNK         0.0000 
     52 H52        -2.8166    5.6890   -5.8931 H         1 UNK         0.0000 
     53 H53        -2.2514    3.3268   -6.3940 H         1 UNK         0.0000 
     54 H54        -1.8514    1.7222   -4.5510 H         1 UNK         0.0000 
     55 H55        -2.2418    2.7373   -0.9023 H         1 UNK         0.0000 
     56 H56        -2.7685    1.4676   -2.0140 H         1 UNK         0.0000 
     57 H57         2.4632    2.1256   -2.2857 H         1 UNK         0.0000 
     58 H58         1.7448    1.1145   -3.5527 H         1 UNK         0.0000 
     59 H59         1.9188    3.0241   -4.5593 H         1 UNK         0.0000 
     60 H60         0.2545    3.1825   -4.1408 H         1 UNK         0.0000 
     61 H61         2.7821    4.6373   -2.9880 H         1 UNK         0.0000 
     62 H62         1.6017    5.2021   -4.1954 H         1 UNK         0.0000 
     63 H63         1.0329    6.4799   -2.4049 H         1 UNK         0.0000 
     64 H64        -0.1864    5.1920   -2.4419 H         1 UNK         0.0000 
     65 H65         2.2406    5.5525   -0.5860 H         1 UNK         0.0000 
     66 H66         1.2832    4.0561   -0.6200 H         1 UNK         0.0000 
     67 H67         0.1058    6.8362   -0.0675 H         1 UNK         0.0000 
     68 H68        -0.3961    3.1976    0.3557 H         1 UNK         0.0000 
     69 H69         0.8146    3.6762    1.6163 H         1 UNK         0.0000 
     70 H70        -2.1666    2.9555    2.0172 H         1 UNK         0.0000 
     71 H71        -1.0493    3.5194    3.3305 H         1 UNK         0.0000 
     72 H72         1.9998    1.5784    4.5782 H         1 UNK         0.0000 
     73 H73         0.6186    2.7297    4.6350 H         1 UNK         0.0000 
     74 H74        -0.9353    0.7274    4.9852 H         1 UNK         0.0000 
     75 H75         0.5657   -0.2752    5.0314 H         1 UNK         0.0000 
     76 H76        -0.2041    1.9471    6.9732 H         1 UNK         0.0000 
     77 H77         1.2604    0.9160    7.1606 H         1 UNK         0.0000 
     78 H78        -1.6843   -0.0987    7.1441 H         1 UNK         0.0000 
     79 H79        -0.7684    0.3097    8.6191 H         1 UNK         0.0000 
     80 H80         0.8459   -1.4415    8.3087 H         1 UNK         0.0000 
     81 H81        -0.8047   -2.1485    8.3092 H         1 UNK         0.0000 
     82 H82         1.1949   -2.3379    6.2514 H         1 UNK         0.0000 
     83 H83         0.4976   -2.0761    3.8539 H         1 UNK         0.0000 
     84 H84         0.3599   -3.8168    4.1839 H         1 UNK         0.0000 
     85 H85        -1.8202   -3.9014    3.0107 H         1 UNK         0.0000 
     86 H86        -2.0357   -2.1206    3.2010 H         1 UNK         0.0000 
     87 H87         0.7744   -4.7972    2.1238 H         1 UNK         0.0000 
     88 H88         2.1427   -4.0492    1.2142 H         1 UNK         0.0000 
     89 H89        -0.4284   -5.3512    0.0833 H         1 UNK         0.0000 
     90 H90         0.9100   -4.7134   -0.9481 H         1 UNK         0.0000 
     91 H91         2.4600   -6.4246   -0.0240 H         1 UNK         0.0000 
     92 H92         1.1838   -6.9950    1.1249 H         1 UNK         0.0000 
     93 H93         0.9211   -7.0930   -1.9495 H         1 UNK         0.0000 
     94 H94        -0.2984   -7.6250   -0.7341 H         1 UNK         0.0000 
     95 H95         2.5497   -8.7414   -1.1127 H         1 UNK         0.0000 
     96 H96         1.4140   -9.3150    0.1620 H         1 UNK         0.0000 
     97 H97         1.4776  -10.1494   -2.5872 H         1 UNK         0.0000 
     98 H98        -1.8408  -10.8547   -3.1559 H         1 UNK         0.0000 
     99 H99        -1.1943  -12.2266   -2.1716 H         1 UNK         0.0000 
    100 H100       -0.1894  -11.5023   -3.4814 H         1 UNK         0.0000 
@<TRIPOS>BOND
     1    1   10 nc   
     2    1   12 nc   
     3    1   24 nc   
     4    1   26 nc   
     5    1   38 nc   
     6    1   40 nc   
     7    2   50 1    
     8    2    3 ar   
     9    2    7 ar   
    10    3   51 1    
    11    3    4 ar   
    12    4    5 ar   
    13    4   52 1    
    14    5    6 ar   
    15    5   53 1    
    16    6    7 ar   
    17    6   54 1    
    18    7    8 1    
    19    8   55 1    
    20    8    9 1    
    21    8   56 1    
    22    9   10 2    
    23    9   11 am   BACKBONE|DICT|INTERRES
    24   11   12 1    
    25   11   13 1    
    26   13   57 1    
    27   13   14 1    
    28   13   58 1    
    29   14   15 1    
    30   14   59 1    
    31   14   60 1    
    32   15   61 1    
    33   15   16 1    
    34   15   62 1    
    35   16   17 1    
    36   16   63 1    
    37   16   64 1    
    38   17   66 1    
    39   17   65 1    
    40   17   18 1    
    41   18   19 am   BACKBONE|DICT|INTERRES
    42   18   67 1    
    43   19   21 1    
    44   19   20 2    
    45   21   69 1    
    46   21   22 1    
    47   21   68 1    
    48   22   23 1    
    49   22   71 1    
    50   22   70 1    
    51   23   25 am   BACKBONE|DICT|INTERRES
    52   23   24 2    
    53   25   27 1    
    54   25   26 1    
    55   27   72 1    
    56   27   73 1    
    57   27   28 1    
    58   28   29 1    
    59   28   74 1    
    60   28   75 1    
    61   29   76 1    
    62   29   77 1    
    63   29   30 1    
    64   30   31 1    
    65   30   79 1    
    66   30   78 1    
    67   31   80 1    
    68   31   81 1    
    69   31   32 1    
    70   32   33 am   BACKBONE|DICT|INTERRES
    71   32   82 1    
    72   33   34 2    
    73   33   35 1    
    74   35   84 1    
    75   35   36 1    
    76   35   83 1    
    77   36   86 1    
    78   36   37 1    
    79   36   85 1    
    80   37   38 2    
    81   37   39 am   BACKBONE|DICT|INTERRES
    82   39   41 1    
    83   39   40 1    
    84   41   88 1    
    85   41   87 1    
    86   41   42 1    
    87   42   89 1    
    88   42   43 1    
    89   42   90 1    
    90   43   92 1    
    91   43   44 1    
    92   43   91 1    
    93   44   45 1    
    94   44   94 1    
    95   44   93 1    
    96   45   96 1    
    97   45   46 1    
    98   45   95 1    
    99   46   47 am   BACKBONE|DICT|INTERRES
   100   46   97 1    
   101   47   48 2    
   102   47   49 1    
   103   49   99 1    
   104   49   98 1    
   105   49  100 1    
@<TRIPOS>SUBSTRUCTURE
     1 UNK         1 GROUP             0       ****    0 ROOT    
@<TRIPOS>MOLECULE
015_r1_c1
107   111    1
SMALL
USER_CHARGES


@<TRIPOS>ATOM
      1 Fe1        -0.3183   -1.4629   -0.1326 Fe        1 UNK         0.0000 
      2 C2         -2.5680    8.9252   -2.2299 C.3       1 UNK         0.0000 
      3 C3         -2.4071    7.4039   -2.2007 C.3       1 UNK         0.0000 
      4 C4         -3.6722    6.6361   -1.7182 C.3       1 UNK         0.0000 
      5 H5         -3.9362    6.9794   -0.6933 H         1 UNK         0.0000 
      6 C6         -4.8747    6.9173   -2.6353 C.3       1 UNK         0.0000 
      7 C7         -3.4363    5.1006   -1.6765 C.3       1 UNK         0.0000 
      8 C8         -2.3564    4.6728   -0.6722 C.3       1 UNK         0.0000 
      9 C9         -2.0923    3.1579   -0.7076 C.3       1 UNK         0.0000 
     10 C10        -0.9038    2.8344    0.2039 C.3       1 UNK         0.0000 
     11 C11        -0.3367    1.4564    0.0111 C.2       1 UNK         0.0000 
     12 O12        -0.8227    0.5118   -0.6042 O.co2     1 UNK         0.0000 
     13 N13         0.8446    1.1082    0.3760 N.am      1 UNK         0.0000 
     14 O14         0.9758   -0.0598   -0.2144 O.co2     1 UNK         0.0000 
     15 C15         1.8814    1.7611    1.1485 C.3       1 UNK         0.0000 
     16 C16         1.4774    1.9054    2.6240 C.3       1 UNK         0.0000 
     17 C17         2.7315    2.1384    3.4801 C.3       1 UNK         0.0000 
     18 C18         2.4929    2.2744    4.9937 C.3       1 UNK         0.0000 
     19 C19         1.6716    1.1505    5.6516 C.3       1 UNK         0.0000 
     20 N20         2.1155   -0.1766    5.2436 N.am      1 UNK         0.0000 
     21 C21         1.2551   -1.1007    4.7227 C.2       1 UNK         0.0000 
     22 O22         0.0606   -0.8459    4.6417 O.2       1 UNK         0.0000 
     23 C23         1.7679   -2.4458    4.2418 C.3       1 UNK         0.0000 
     24 C24         0.6536   -3.3830    3.7267 C.3       1 UNK         0.0000 
     25 C25        -0.0915   -2.7777    2.5561 C.2       1 UNK         0.0000 
     26 O26         0.3880   -2.5524    1.4740 O.co2     1 UNK         0.0000 
     27 N27        -1.3318   -2.4398    2.4947 N.am      1 UNK         0.0000 
     28 O28        -1.4881   -2.0072    1.2412 O.co2     1 UNK         0.0000 
     29 C29        -2.4025   -2.7548    3.4203 C.3       1 UNK         0.0000 
     30 C30        -3.0187   -4.0697    2.9696 C.3       1 UNK         0.0000 
     31 C31        -4.2863   -4.4329    3.7282 C.3       1 UNK         0.0000 
     32 C32        -4.9686   -5.7090    3.1945 C.3       1 UNK         0.0000 
     33 C33        -5.4556   -5.6184    1.7296 C.3       1 UNK         0.0000 
     34 N34        -4.3887   -5.8369    0.7586 N.am      1 UNK         0.0000 
     35 C35        -3.9989   -4.9237   -0.1799 C.2       1 UNK         0.0000 
     36 O36        -4.4966   -3.8058   -0.2019 O.2       1 UNK         0.0000 
     37 C37        -2.9681   -5.3170   -1.2167 C.3       1 UNK         0.0000 
     38 C38        -2.4994   -4.1698   -2.1369 C.3       1 UNK         0.0000 
     39 C39        -1.2916   -3.4219   -1.5972 C.2       1 UNK         0.0000 
     40 O40        -1.1573   -2.2585   -1.1964 O.co2     1 UNK         0.0000 
     41 N41        -0.1115   -3.7003   -1.7336 N.am      1 UNK         0.0000 
     42 O42         0.1945   -2.4112   -1.4959 O.co2     1 UNK         0.0000 
     43 C43         0.5843   -4.7151   -2.4970 C.3       1 UNK         0.0000 
     44 C44         0.6570   -4.3552   -3.9803 C.3       1 UNK         0.0000 
     45 C45         1.4057   -5.4518   -4.7406 C.3       1 UNK         0.0000 
     46 C46         1.4879   -5.1324   -6.2331 C.3       1 UNK         0.0000 
     47 C47         2.2338   -6.2442   -6.9797 C.3       1 UNK         0.0000 
     48 N48         2.3128   -5.9501   -8.4088 N.4       1 UNK         0.0000 
     49 H49         2.8295   -5.0538   -8.5621 H         1 UNK         0.0000 
     50 H50         1.3510   -5.8781   -8.8133 H         1 UNK         0.0000 
     51 H51         2.8257   -6.7247   -8.8882 H         1 UNK         0.0000 
     52 H52        -1.6049    9.3885   -2.5341 H         1 UNK         0.0000 
     53 H53        -2.8382    9.3032   -1.2213 H         1 UNK         0.0000 
     54 H54        -3.3335    9.2418   -2.9657 H         1 UNK         0.0000 
     55 H55        -2.1165    7.0544   -3.2157 H         1 UNK         0.0000 
     56 H56        -1.5624    7.2118   -1.5111 H         1 UNK         0.0000 
     57 H57        -5.1450    7.9920   -2.6292 H         1 UNK         0.0000 
     58 H58        -4.6537    6.6040   -3.6784 H         1 UNK         0.0000 
     59 H59        -5.7674    6.3621   -2.2770 H         1 UNK         0.0000 
     60 H60        -3.1555    4.7511   -2.6951 H         1 UNK         0.0000 
     61 H61        -4.3814    4.5927   -1.3830 H         1 UNK         0.0000 
     62 H62        -1.4035    5.1684   -0.9406 H         1 UNK         0.0000 
     63 H63        -2.6468    4.9857    0.3546 H         1 UNK         0.0000 
     64 H64        -2.9907    2.5757   -0.4095 H         1 UNK         0.0000 
     65 H65        -1.8168    2.8866   -1.7513 H         1 UNK         0.0000 
     66 H66        -1.1358    3.0268    1.2725 H         1 UNK         0.0000 
     67 H67        -0.0816    3.5202   -0.0969 H         1 UNK         0.0000 
     68 H68         2.7693    1.0921    1.1017 H         1 UNK         0.0000 
     69 H69         2.1704    2.7378    0.7057 H         1 UNK         0.0000 
     70 H70         0.7321    2.7179    2.7495 H         1 UNK         0.0000 
     71 H71         1.0192    0.9510    2.9479 H         1 UNK         0.0000 
     72 H72         3.4109    1.2700    3.3283 H         1 UNK         0.0000 
     73 H73         3.2643    3.0496    3.1303 H         1 UNK         0.0000 
     74 H74         3.4993    2.3026    5.4667 H         1 UNK         0.0000 
     75 H75         1.9899    3.2401    5.2170 H         1 UNK         0.0000 
     76 H76         0.6019    1.3099    5.3980 H         1 UNK         0.0000 
     77 H77         1.7648    1.2553    6.7538 H         1 UNK         0.0000 
     78 H78         3.1112   -0.4210    5.3566 H         1 UNK         0.0000 
     79 H79         2.5093   -2.2753    3.4317 H         1 UNK         0.0000 
     80 H80         2.2825   -2.9505    5.0874 H         1 UNK         0.0000 
     81 H81        -0.0280   -3.5926    4.5737 H         1 UNK         0.0000 
     82 H82         1.0912   -4.3534    3.4099 H         1 UNK         0.0000 
     83 H83        -2.0508   -2.8239    4.4686 H         1 UNK         0.0000 
     84 H84        -3.1561   -1.9382    3.3800 H         1 UNK         0.0000 
     85 H85        -2.2714   -4.8901    3.0469 H         1 UNK         0.0000 
     86 H86        -3.2752   -3.9091    1.9236 H         1 UNK         0.0000 
     87 H87        -5.0089   -3.5905    3.6520 H         1 UNK         0.0000 
     88 H88        -4.0359   -4.5784    4.8018 H         1 UNK         0.0000 
     89 H89        -5.8689   -5.8453    3.8327 H         1 UNK         0.0000 
     90 H90        -4.3246   -6.6050    3.3314 H         1 UNK         0.0000 
     91 H91        -6.1975   -6.4299    1.5675 H         1 UNK         0.0000 
     92 H92        -5.9866   -4.6542    1.5769 H         1 UNK         0.0000 
     93 H93        -3.9270   -6.7599    0.7673 H         1 UNK         0.0000 
     94 H94        -2.0815   -5.8009   -0.7509 H         1 UNK         0.0000 
     95 H95        -3.4767   -6.0856   -1.8379 H         1 UNK         0.0000 
     96 H96        -2.1607   -4.6377   -3.0819 H         1 UNK         0.0000 
     97 H97        -3.3323   -3.4945   -2.4245 H         1 UNK         0.0000 
     98 H98         1.6173   -4.8050   -2.0971 H         1 UNK         0.0000 
     99 H99         0.0771   -5.6949   -2.3537 H         1 UNK         0.0000 
    100 H100       -0.3654   -4.2503   -4.3972 H         1 UNK         0.0000 
    101 H101        1.1889   -3.3858   -4.0983 H         1 UNK         0.0000 
    102 H102        0.8726   -6.4190   -4.6034 H         1 UNK         0.0000 
    103 H103        2.4344   -5.5490   -4.3270 H         1 UNK         0.0000 
    104 H104        2.0224   -4.1675   -6.3753 H         1 UNK         0.0000 
    105 H105        0.4593   -5.0377   -6.6457 H         1 UNK         0.0000 
    106 H106        3.2628   -6.3432   -6.5671 H         1 UNK         0.0000 
    107 H107        1.7024   -7.2113   -6.8330 H         1 UNK         0.0000 
@<TRIPOS>BOND
     1    1   12 nc   
     2    1   14 nc   
     3    1   26 nc   
     4    1   28 nc   
     5    1   40 nc   
     6    1   42 nc   
     7    2    3 1    
     8    2   53 1    
     9    2   52 1    
    10    2   54 1    
    11    3    4 1    
    12    3   56 1    
    13    3   55 1    
    14    4    7 1    
    15    4    5 1    
    16    4    6 1    
    17    6   57 1    
    18    6   59 1    
    19    6   58 1    
    20    7   61 1    
    21    7    8 1    
    22    7   60 1    
    23    8   63 1    
    24    8    9 1    
    25    8   62 1    
    26    9   64 1    
    27    9   10 1    
    28    9   65 1    
    29   10   66 1    
    30   10   11 1    
    31   10   67 1    
    32   11   13 am   BACKBONE|DICT|INTERRES
    33   11   12 2    
    34   13   15 1    
    35   13   14 1    
    36   15   16 1    
    37   15   68 1    
    38   15   69 1    
    39   16   70 1    
    40   16   71 1    
    41   16   17 1    
    42   17   18 1    
    43   17   72 1    
    44   17   73 1    
    45   18   75 1    
    46   18   74 1    
    47   18   19 1    
    48   19   77 1    
    49   19   20 1    
    50   19   76 1    
    51   20   78 1    
    52   20   21 am   BACKBONE|DICT|INTERRES
    53   21   22 2    
    54   21   23 1    
    55   23   80 1    
    56   23   24 1    
    57   23   79 1    
    58   24   81 1    
    59   24   25 1    
    60   24   82 1    
    61   25   27 am   BACKBONE|DICT|INTERRES
    62   25   26 2    
    63   27   29 1    
    64   27   28 1    
    65   29   83 1    
    66   29   30 1    
    67   29   84 1    
    68   30   85 1    
    69   30   31 1    
    70   30   86 1    
    71   31   88 1    
    72   31   32 1    
    73   31   87 1    
    74   32   90 1    
    75   32   89 1    
    76   32   33 1    
    77   33   34 1    
    78   33   91 1    
    79   33   92 1    
    80   34   93 1    
    81   34   35 am   BACKBONE|DICT|INTERRES
    82   35   36 2    
    83   35   37 1    
    84   37   94 1    
    85   37   38 1    
    86   37   95 1    
    87   38   39 1    
    88   38   96 1    
    89   38   97 1    
    90   39   40 2    
    91   39   41 am   BACKBONE|DICT|INTERRES
    92   41   42 1    
    93   41   43 1    
    94   43   99 1    
    95   43   98 1    
    96   43   44 1    
    97   44   45 1    
    98   44  100 1    
    99   44  101 1    
   100   45  102 1    
   101   45  103 1    
   102   45   46 1    
   103   46   47 1    
   104   46  104 1    
   105   46  105 1    
   106   47  107 1    
   107   47  106 1    
   108   47   48 1    
   109   48   49 1    
   110   48   50 1    
   111   48   51 1    
@<TRIPOS>SUBSTRUCTURE
     1 UNK         1 GROUP             0       ****    0 ROOT    
@<TRIPOS>MOLECULE
016_r3_c1
114   118    1
SMALL
USER_CHARGES


@<TRIPOS>ATOM
      1 Fe1         0.2424    1.9732   -0.0499 Fe        1 UNK         0.0000 
      2 C2          1.0861  -11.1447   -1.2311 C.3       1 UNK         0.0000 
      3 C3          0.9969   -9.6219   -1.1000 C.3       1 UNK         0.0000 
      4 C4          2.0287   -8.8578   -1.9727 C.3       1 UNK         0.0000 
      5 H5          3.0502   -9.1981   -1.6917 H         1 UNK         0.0000 
      6 C6          1.8227   -9.1499   -3.4704 C.3       1 UNK         0.0000 
      7 C7          1.9597   -7.3219   -1.7566 C.3       1 UNK         0.0000 
      8 C8          2.2270   -6.8868   -0.3024 C.3       1 UNK         0.0000 
      9 C9          2.3277   -5.3619   -0.1090 C.3       1 UNK         0.0000 
     10 C10         1.0647   -4.6111   -0.5498 C.3       1 UNK         0.0000 
     11 C11         1.1105   -3.1291   -0.1442 C.3       1 UNK         0.0000 
     12 C12        -0.1256   -2.4072   -0.6832 C.3       1 UNK         0.0000 
     13 C13        -0.2501   -0.9961   -0.1743 C.2       1 UNK         0.0000 
     14 O14         0.5416   -0.0873   -0.3867 O.co2     1 UNK         0.0000 
     15 N15        -1.3621   -0.5143    0.4463 N.4       1 UNK         0.0000 
     16 H16        -2.2418   -0.8970    0.0647 H         1 UNK         0.0000 
     17 O17        -1.1234    0.7443    0.1243 O.co2     1 UNK         0.0000 
     18 C18        -1.4228   -0.8145    1.8700 C.3       1 UNK         0.0000 
     19 C19        -2.3892    0.1305    2.6004 C.3       1 UNK         0.0000 
     20 C20        -2.6430   -0.3551    4.0294 C.3       1 UNK         0.0000 
     21 C21        -3.4344    0.6681    4.8656 C.3       1 UNK         0.0000 
     22 C22        -2.5905    1.3355    5.9699 C.3       1 UNK         0.0000 
     23 N23        -1.4668    2.1490    5.5261 N.am      1 UNK         0.0000 
     24 C24        -1.6090    3.3585    4.9182 C.2       1 UNK         0.0000 
     25 O25        -2.7193    3.7615    4.5999 O.2       1 UNK         0.0000 
     26 C26        -0.4130    4.2812    4.7514 C.3       1 UNK         0.0000 
     27 C27        -0.2036    4.7823    3.3195 C.3       1 UNK         0.0000 
     28 C28         0.3379    3.7362    2.3876 C.2       1 UNK         0.0000 
     29 O29        -0.2768    3.2604    1.4809 O.co2     1 UNK         0.0000 
     30 N30         1.5401    3.2937    2.2835 N.am      1 UNK         0.0000 
     31 O31         1.5156    2.5092    1.2031 O.co2     1 UNK         0.0000 
     32 C32         2.7264    3.7143    2.9926 C.3       1 UNK         0.0000 
     33 C33         3.5997    4.4374    1.9827 C.3       1 UNK         0.0000 
     34 C34         4.8468    5.0527    2.5990 C.3       1 UNK         0.0000 
     35 C35         5.7481    5.7022    1.5382 C.3       1 UNK         0.0000 
     36 C36         5.1395    6.9086    0.7848 C.3       1 UNK         0.0000 
     37 N37         4.0104    6.6015   -0.0910 N.am      1 UNK         0.0000 
     38 C38         4.0930    5.7658   -1.1661 C.2       1 UNK         0.0000 
     39 O39         5.1365    5.1770   -1.4091 O.2       1 UNK         0.0000 
     40 C40         2.9538    5.6461   -2.1587 C.3       1 UNK         0.0000 
     41 C41         2.5120    4.2037   -2.5028 C.3       1 UNK         0.0000 
     42 C42         1.2626    3.6695   -1.8283 C.2       1 UNK         0.0000 
     43 O43         1.0756    2.6126   -1.2233 O.co2     1 UNK         0.0000 
     44 N44         0.1015    4.0242   -1.9210 N.am      1 UNK         0.0000 
     45 O45        -0.2782    2.8003   -1.4978 O.co2     1 UNK         0.0000 
     46 C46        -0.5897    5.0148   -2.7225 C.3       1 UNK         0.0000 
     47 C47        -0.7432    4.5998   -4.1836 C.3       1 UNK         0.0000 
     48 C48        -1.4744    5.7145   -4.9401 C.3       1 UNK         0.0000 
     49 C49        -1.6281    5.3912   -6.4256 C.3       1 UNK         0.0000 
     50 C50        -2.3453    6.5409   -7.1460 C.3       1 UNK         0.0000 
     51 N51        -2.4877    6.2589   -8.5724 N.4       1 UNK         0.0000 
     52 H52        -2.9788    7.0604   -9.0301 H         1 UNK         0.0000 
     53 H53        -1.5448    6.1442   -9.0103 H         1 UNK         0.0000 
     54 H54        -3.0521    5.3896   -8.7115 H         1 UNK         0.0000 
     55 H55         0.8286  -11.4837   -2.2542 H         1 UNK         0.0000 
     56 H56         2.1079  -11.4940   -0.9702 H         1 UNK         0.0000 
     57 H57         0.3634  -11.6169   -0.5324 H         1 UNK         0.0000 
     58 H58        -0.0351   -9.2933   -1.3512 H         1 UNK         0.0000 
     59 H59         1.1846   -9.4018   -0.0300 H         1 UNK         0.0000 
     60 H60         0.8042   -8.8423   -3.7922 H         1 UNK         0.0000 
     61 H61         2.5696   -8.5954   -4.0774 H         1 UNK         0.0000 
     62 H62         1.9626  -10.2254   -3.6979 H         1 UNK         0.0000 
     63 H63         0.9618   -6.9530   -2.0781 H         1 UNK         0.0000 
     64 H64         2.7340   -6.8493   -2.4006 H         1 UNK         0.0000 
     65 H65         1.4148   -7.2587    0.3555 H         1 UNK         0.0000 
     66 H66         3.1880   -7.3307    0.0368 H         1 UNK         0.0000 
     67 H67         2.4980   -5.1833    0.9754 H         1 UNK         0.0000 
     68 H68         3.2019   -4.9626   -0.6682 H         1 UNK         0.0000 
     69 H69         0.9617   -4.6907   -1.6535 H         1 UNK         0.0000 
     70 H70         0.1738   -5.0749   -0.0708 H         1 UNK         0.0000 
     71 H71         1.1288   -3.0673    0.9664 H         1 UNK         0.0000 
     72 H72         2.0227   -2.6379   -0.5483 H         1 UNK         0.0000 
     73 H73        -1.0371   -2.9626   -0.3703 H         1 UNK         0.0000 
     74 H74        -0.0911   -2.3953   -1.7940 H         1 UNK         0.0000 
     75 H75        -1.6991   -1.8861    2.0054 H         1 UNK         0.0000 
     76 H76        -0.4286   -0.6551    2.3504 H         1 UNK         0.0000 
     77 H77        -1.9410    1.1485    2.6064 H         1 UNK         0.0000 
     78 H78        -3.3681    0.1769    2.0735 H         1 UNK         0.0000 
     79 H79        -3.2468   -1.2845    3.9235 H         1 UNK         0.0000 
     80 H80        -1.7060   -0.6370    4.5580 H         1 UNK         0.0000 
     81 H81        -4.2049    0.0956    5.4284 H         1 UNK         0.0000 
     82 H82        -3.9932    1.3900    4.2308 H         1 UNK         0.0000 
     83 H83        -3.2546    1.9572    6.6099 H         1 UNK         0.0000 
     84 H84        -2.1959    0.5204    6.6163 H         1 UNK         0.0000 
     85 H85        -0.5236    1.8494    5.8157 H         1 UNK         0.0000 
     86 H86        -0.6322    5.1735    5.3768 H         1 UNK         0.0000 
     87 H87         0.5212    3.8255    5.1432 H         1 UNK         0.0000 
     88 H88        -1.1767    5.1633    2.9394 H         1 UNK         0.0000 
     89 H89         0.5029    5.6397    3.3088 H         1 UNK         0.0000 
     90 H90         2.4675    4.4096    3.8187 H         1 UNK         0.0000 
     91 H91         3.2494    2.8330    3.4221 H         1 UNK         0.0000 
     92 H92         3.8901    3.7270    1.1767 H         1 UNK         0.0000 
     93 H93         2.9701    5.2415    1.5603 H         1 UNK         0.0000 
     94 H94         5.4319    4.2489    3.0976 H         1 UNK         0.0000 
     95 H95         4.5588    5.8043    3.3664 H         1 UNK         0.0000 
     96 H96         6.6479    6.0751    2.0743 H         1 UNK         0.0000 
     97 H97         6.0988    4.9296    0.8242 H         1 UNK         0.0000 
     98 H98         5.9421    7.3600    0.1622 H         1 UNK         0.0000 
     99 H99         4.8299    7.6718    1.5322 H         1 UNK         0.0000 
    100 H100        3.1263    7.1056    0.0777 H         1 UNK         0.0000 
    101 H101        2.0888    6.2970   -1.9183 H         1 UNK         0.0000 
    102 H102        3.4013    6.0574   -3.0904 H         1 UNK         0.0000 
    103 H103        3.3645    3.4974   -2.4178 H         1 UNK         0.0000 
    104 H104        2.2387    4.2100   -3.5770 H         1 UNK         0.0000 
    105 H105       -1.5960    5.1769   -2.2801 H         1 UNK         0.0000 
    106 H106       -0.0426    5.9788   -2.6590 H         1 UNK         0.0000 
    107 H107        0.2557    4.4441   -4.6385 H         1 UNK         0.0000 
    108 H108       -1.3202    3.6517   -4.2456 H         1 UNK         0.0000 
    109 H109       -0.8950    6.6598   -4.8394 H         1 UNK         0.0000 
    110 H110       -2.4809    5.8652   -4.4893 H         1 UNK         0.0000 
    111 H111       -0.6212    5.2469   -6.8752 H         1 UNK         0.0000 
    112 H112       -2.2136    4.4533   -6.5432 H         1 UNK         0.0000 
    113 H113       -3.3533    6.6895   -6.6978 H         1 UNK         0.0000 
    114 H114       -1.7633    7.4812   -7.0165 H         1 UNK         0.0000 
@<TRIPOS>BOND
     1    1   14 nc   
     2    1   17 nc   
     3    1   29 nc   
     4    1   31 nc   
     5    1   43 nc   
     6    1   45 nc   
     7    2    3 1    
     8    2   56 1    
     9    2   57 1    
    10    2   55 1    
    11    3   59 1    
    12    3    4 1    
    13    3   58 1    
    14    4    7 1    
    15    4    5 1    
    16    4    6 1    
    17    6   60 1    
    18    6   61 1    
    19    6   62 1    
    20    7    8 1    
    21    7   63 1    
    22    7   64 1    
    23    8    9 1    
    24    8   66 1    
    25    8   65 1    
    26    9   67 1    
    27    9   10 1    
    28    9   68 1    
    29   10   11 1    
    30   10   70 1    
    31   10   69 1    
    32   11   71 1    
    33   11   12 1    
    34   11   72 1    
    35   12   73 1    
    36   12   13 1    
    37   12   74 1    
    38   13   15 1    
    39   13   14 2    
    40   15   16 1    
    41   15   18 1    
    42   15   17 1    
    43   18   75 1    
    44   18   76 1    
    45   18   19 1    
    46   19   77 1    
    47   19   20 1    
    48   19   78 1    
    49   20   80 1    
    50   20   21 1    
    51   20   79 1    
    52   21   81 1    
    53   21   22 1    
    54   21   82 1    
    55   22   83 1    
    56   22   84 1    
    57   22   23 1    
    58   23   85 1    
    59   23   24 am   BACKBONE|DICT|INTERRES
    60   24   25 2    
    61   24   26 1    
    62   26   87 1    
    63   26   86 1    
    64   26   27 1    
    65   27   28 1    
    66   27   88 1    
    67   27   89 1    
    68   28   30 am   BACKBONE|DICT|INTERRES
    69   28   29 2    
    70   30   32 1    
    71   30   31 1    
    72   32   91 1    
    73   32   90 1    
    74   32   33 1    
    75   33   34 1    
    76   33   92 1    
    77   33   93 1    
    78   34   94 1    
    79   34   95 1    
    80   34   35 1    
    81   35   96 1    
    82   35   36 1    
    83   35   97 1    
    84   36   99 1    
    85   36   37 1    
    86   36   98 1    
    87   37  100 1    
    88   37   38 am   BACKBONE|DICT|INTERRES
    89   38   39 2    
    90   38   40 1    
    91   40  101 1    
    92   40   41 1    
    93   40  102 1    
    94   41  103 1    
    95   41   42 1    
    96   41  104 1    
    97   42   43 2    
    98   42   44 am   BACKBONE|DICT|INTERRES
    99   44   45 1    
   100   44   46 1    
   101   46  106 1    
   102   46  105 1    
   103   46   47 1    
   104   47   48 1    
   105   47  107 1    
   106   47  108 1    
   107   48  109 1    
   108   48  110 1    
   109   48   49 1    
   110   49   50 1    
   111   49  111 1    
   112   49  112 1    
   113   50  114 1    
   114   50  113 1    
   115   50   51 1    
   116   51   52 1    
   117   51   53 1    
   118   51   54 1    
@<TRIPOS>SUBSTRUCTURE
     1 UNK         1 GROUP             0       ****    0 ROOT    
@<TRIPOS>MOLECULE
023_c1
72   76    1
SMALL
USER_CHARGES


@<TRIPOS>ATOM
      1 Fe1        -0.4137    0.8457    1.7207 Fe        1 UNK         0.0000 
      2 O2         -0.9218    0.2749    3.5692 O.co2     1 UNK         0.0000 
      3 C3         -0.7273   -0.8067    4.0710 C.2       1 UNK         0.0000 
      4 C4         -0.5339   -1.1242    5.5185 C.3       1 UNK         0.0000 
      5 N5         -0.7614   -1.5897    3.0862 N.am      1 UNK         0.0000 
      6 O6         -0.9556   -0.6875    2.1216 O.co2     1 UNK         0.0000 
      7 C7         -0.6638   -3.0243    2.9642 C.3       1 UNK         0.0000 
      8 C8          0.2872   -3.3155    1.8254 C.3       1 UNK         0.0000 
      9 C9          0.4512   -4.8018    1.5534 C.3       1 UNK         0.0000 
     10 C10         1.4265   -5.0392    0.3969 C.3       1 UNK         0.0000 
     11 C11         0.8809   -4.7925   -1.0367 C.3       1 UNK         0.0000 
     12 H12         0.0363   -5.5016   -1.1918 H         1 UNK         0.0000 
     13 C13         1.9484   -5.1763   -2.0322 C.2       1 UNK         0.0000 
     14 O14         1.7418   -6.2061   -2.8762 O.2       1 UNK         0.0000 
     15 O15         3.0010   -4.5604   -2.0859 O.3       1 UNK         0.0000 
     16 N16         0.3841   -3.4527   -1.3687 N.am      1 UNK         0.0000 
     17 C17         1.0585   -2.2743   -1.2061 C.2       1 UNK         0.0000 
     18 O18         2.0915   -2.2295   -0.5547 O.2       1 UNK         0.0000 
     19 C19         0.6295   -1.0464   -1.9828 C.3       1 UNK         0.0000 
     20 C20         0.1553    0.2915   -1.3139 C.3       1 UNK         0.0000 
     21 O21         0.7800    0.5661   -0.0793 O.co2     1 UNK         0.0000 
     22 C22        -1.2268    0.2831   -0.8635 C.2       1 UNK         0.0000 
     23 O23        -1.3318    0.7485    0.4014 O.co2     1 UNK         0.0000 
     24 O24        -2.1972    0.0423   -1.5644 O.co2     1 UNK         0.0000 
     25 C25         0.3437    1.4037   -2.4097 C.3       1 UNK         0.0000 
     26 C26        -0.0506    2.8341   -2.1049 C.2       1 UNK         0.0000 
     27 O27        -1.1819    3.0582   -1.7052 O.2       1 UNK         0.0000 
     28 N28         0.8171    3.8588   -2.3993 N.am      1 UNK         0.0000 
     29 C29         0.5548    5.3010   -2.2950 C.3       1 UNK         0.0000 
     30 H30         1.3983    5.8184   -2.8068 H         1 UNK         0.0000 
     31 C31        -0.6919    5.7259   -3.0456 C.2       1 UNK         0.0000 
     32 O32        -0.5740    6.5290   -4.1206 O.2       1 UNK         0.0000 
     33 O33        -1.8051    5.3826   -2.6841 O.3       1 UNK         0.0000 
     34 C34         0.6204    5.8453   -0.8483 C.3       1 UNK         0.0000 
     35 C35        -0.2940    5.1346    0.1369 C.3       1 UNK         0.0000 
     36 C36        -0.1618    5.6768    1.5650 C.3       1 UNK         0.0000 
     37 C37        -0.9178    4.7494    2.5258 C.3       1 UNK         0.0000 
     38 N38        -0.3765    3.3980    2.4355 N.am      1 UNK         0.0000 
     39 O39        -0.9896    2.3605    1.8306 O.co2     1 UNK         0.0000 
     40 C40         0.8015    2.9748    2.8196 C.2       1 UNK         0.0000 
     41 O41         0.9367    1.8117    2.4805 O.co2     1 UNK         0.0000 
     42 C42         1.8510    3.7453    3.5662 C.3       1 UNK         0.0000 
     43 H43         0.4546   -1.6079    5.6632 H         1 UNK         0.0000 
     44 H44        -1.3346   -1.8131    5.8591 H         1 UNK         0.0000 
     45 H45        -0.5739   -0.1927    6.1208 H         1 UNK         0.0000 
     46 H46        -0.3412   -3.4861    3.9219 H         1 UNK         0.0000 
     47 H47        -1.6623   -3.4271    2.6871 H         1 UNK         0.0000 
     48 H48        -0.1493   -2.8304    0.9385 H         1 UNK         0.0000 
     49 H49         1.2789   -2.8651    2.0536 H         1 UNK         0.0000 
     50 H50        -0.5216   -5.2991    1.3451 H         1 UNK         0.0000 
     51 H51         0.8862   -5.2539    2.4720 H         1 UNK         0.0000 
     52 H52         1.6924   -6.1197    0.4347 H         1 UNK         0.0000 
     53 H53         2.3666   -4.4765    0.5833 H         1 UNK         0.0000 
     54 H54        -0.5059   -3.4263   -1.8900 H         1 UNK         0.0000 
     55 H55        -0.1283   -1.3240   -2.7485 H         1 UNK         0.0000 
     56 H56         1.5540   -0.8271   -2.5617 H         1 UNK         0.0000 
     57 H57        -0.2713    1.1030   -3.2874 H         1 UNK         0.0000 
     58 H58         1.4026    1.4012   -2.7469 H         1 UNK         0.0000 
     59 H59         1.7289    3.6050   -2.8093 H         1 UNK         0.0000 
     60 H60         0.4030    6.9361   -0.8563 H         1 UNK         0.0000 
     61 H61         1.6632    5.7092   -0.4834 H         1 UNK         0.0000 
     62 H62        -1.3571    5.1942   -0.1776 H         1 UNK         0.0000 
     63 H63         0.0400    4.0822    0.1456 H         1 UNK         0.0000 
     64 H64        -0.5717    6.7084    1.6186 H         1 UNK         0.0000 
     65 H65         0.9082    5.7145    1.8514 H         1 UNK         0.0000 
     66 H66        -0.8766    5.1105    3.5751 H         1 UNK         0.0000 
     67 H67        -1.9857    4.7504    2.2140 H         1 UNK         0.0000 
     68 H68         1.5162    4.7697    3.8206 H         1 UNK         0.0000 
     69 H69         2.0777    3.2186    4.5166 H         1 UNK         0.0000 
     70 H70         2.7748    3.8041    2.9544 H         1 UNK         0.0000 
     71 H71         3.5584   -4.9375   -2.7706 H         1 UNK         0.0000 
     72 H72        -2.4626    5.7475   -3.2809 H         1 UNK         0.0000 
@<TRIPOS>BOND
     1    1    2 nc   
     2    1    6 nc   
     3    1   21 nc   
     4    1   23 nc   
     5    1   39 nc   
     6    1   41 nc   
     7    2    3 2    
     8    3    4 1    
     9    3    5 am   BACKBONE|DICT|INTERRES
    10    4   43 1    
    11    4   44 1    
    12    4   45 1    
    13    5    6 1    
    14    5    7 1    
    15    7   46 1    
    16    7    8 1    
    17    7   47 1    
    18    8   49 1    
    19    8    9 1    
    20    8   48 1    
    21    9   51 1    
    22    9   10 1    
    23    9   50 1    
    24   10   52 1    
    25   10   53 1    
    26   10   11 1    
    27   11   12 1    
    28   11   13 1    
    29   11   16 1    
    30   13   14 2    
    31   13   15 1    
    32   15   71 1    
    33   16   17 am   BACKBONE|DICT|INTERRES
    34   16   54 1    
    35   17   18 2    
    36   17   19 1    
    37   19   20 1    
    38   19   55 1    
    39   19   56 1    
    40   20   22 1    
    41   20   21 1    
    42   20   25 1    
    43   22   23 1    
    44   22   24 2    
    45   25   26 1    
    46   25   57 1    
    47   25   58 1    
    48   26   27 2    
    49   26   28 am   BACKBONE|DICT|INTERRES
    50   28   29 1    
    51   28   59 1    
    52   29   30 1    
    53   29   34 1    
    54   29   31 1    
    55   31   33 1    
    56   31   32 2    
    57   33   72 1    
    58   34   61 1    
    59   34   35 1    
    60   34   60 1    
    61   35   63 1    
    62   35   36 1    
    63   35   62 1    
    64   36   64 1    
    65   36   65 1    
    66   36   37 1    
    67   37   66 1    
    68   37   38 1    
    69   37   67 1    
    70   38   40 am   BACKBONE|DICT|INTERRES
    71   38   39 1    
    72   40   42 1    
    73   40   41 2    
    74   42   68 1    
    75   42   69 1    
    76   42   70 1    
@<TRIPOS>SUBSTRUCTURE
     1 UNK         1 GROUP             0       ****    0 ROOT    
@<TRIPOS>MOLECULE
024_r1_c1
49   56    1
SMALL
USER_CHARGES


@<TRIPOS>ATOM
      1 Fe1         0.0000    0.0000    0.0000 Fe        1 UNK         0.0000 
      2 O2         -0.1162    1.8731    0.0896 O.co2     1 UNK         0.0000 
      3 C3          0.8158    2.7182   -0.4313 C.ar      1 UNK         0.0000 
      4 C4          0.4426    4.0510   -0.6272 C.ar      1 UNK         0.0000 
      5 C5          1.3326    4.9585   -1.1961 C.ar      1 UNK         0.0000 
      6 C6          2.5988    4.5240   -1.5770 C.ar      1 UNK         0.0000 
      7 N7          2.9609    3.2296   -1.3849 N.ar      1 UNK         0.0000 
      8 C8          2.1356    2.3048   -0.8188 C.ar      1 UNK         0.0000 
      9 C9          2.6861    0.9172   -0.6780 C.2       1 UNK         0.0000 
     10 N10         2.1000    0.0000    0.0000 N.pl3     1 UNK         0.0000 
     11 S11         4.2049    0.3803   -1.4782 S.3       1 UNK         0.0000 
     12 C12         3.5266   -1.3091   -1.3406 C.3       1 UNK         0.0000 
     13 C13         2.6797   -1.3122   -0.0599 C.3       1 UNK         0.0000 
     14 C14         1.5574   -2.3248   -0.1309 C.2       1 UNK         0.0000 
     15 O15         0.2709   -1.8731   -0.0896 O.co2     1 UNK         0.0000 
     16 O16         1.7861   -3.5206   -0.2235 O.co2     1 UNK         0.0000 
     17 C17         3.5333   -1.5402    1.1979 C.3       1 UNK         0.0000 
     18 H18        -0.5485    4.3828   -0.3434 H         1 UNK         0.0000 
     19 H19         1.0394    5.9891   -1.3484 H         1 UNK         0.0000 
     20 H20         3.2975    5.2162   -2.0276 H         1 UNK         0.0000 
     21 H21         2.8748   -1.4325   -2.2346 H         1 UNK         0.0000 
     22 H22         4.2924   -2.1138   -1.3358 H         1 UNK         0.0000 
     23 H23         2.8992   -1.4767    2.1087 H         1 UNK         0.0000 
     24 H24         4.3331   -0.7732    1.2766 H         1 UNK         0.0000 
     25 H25         4.0111   -2.5428    1.1672 H         1 UNK         0.0000 
     26 O26         0.1162    0.0896    1.8731 O.co2     1 UNK         0.0000 
     27 C27        -0.8162   -0.4309    2.7181 C.ar      1 UNK         0.0000 
     28 C28        -0.4432   -0.6264    4.0510 C.ar      1 UNK         0.0000 
     29 C29        -1.3334   -1.1948    4.9585 C.ar      1 UNK         0.0000 
     30 C30        -2.5996   -1.5756    4.5239 C.ar      1 UNK         0.0000 
     31 N31        -2.9615   -1.3842    3.2293 N.ar      1 UNK         0.0000 
     32 C32        -2.1359   -0.8185    2.3046 C.ar      1 UNK         0.0000 
     33 C33        -2.6862   -0.6780    0.9171 C.2       1 UNK         0.0000 
     34 N34        -2.1000    0.0000    0.0000 N.pl3     1 UNK         0.0000 
     35 S35        -4.2052   -1.4780    0.3801 S.3       1 UNK         0.0000 
     36 C36        -3.5265   -1.3407   -1.3090 C.3       1 UNK         0.0000 
     37 C37        -2.6798   -0.0600   -1.3125 C.3       1 UNK         0.0000 
     38 C38        -1.5573   -0.1314   -2.3248 C.2       1 UNK         0.0000 
     39 O39        -0.2709   -0.0896   -1.8731 O.co2     1 UNK         0.0000 
     40 O40        -1.7864   -0.2246   -3.5213 O.co2     1 UNK         0.0000 
     41 C41        -3.5333    1.1977   -1.5409 C.3       1 UNK         0.0000 
     42 H42         0.5479   -0.3427    4.3830 H         1 UNK         0.0000 
     43 H43        -1.0405   -1.3468    5.9892 H         1 UNK         0.0000 
     44 H44        -3.2983   -2.0258    5.2162 H         1 UNK         0.0000 
     45 H45        -2.8748   -2.2349   -1.4320 H         1 UNK         0.0000 
     46 H46        -4.2924   -1.3362   -2.1137 H         1 UNK         0.0000 
     47 H47        -2.8991    2.1085   -1.4774 H         1 UNK         0.0000 
     48 H48        -4.3333    1.2766   -0.7741 H         1 UNK         0.0000 
     49 H49        -4.0108    1.1668   -2.5439 H         1 UNK         0.0000 
@<TRIPOS>BOND
     1    1    2 nc   
     2    1   10 nc   
     3    1   15 nc   
     4    1   26 nc   
     5    1   34 nc   
     6    1   39 nc   
     7    2    3 1    
     8    3    4 ar   
     9    3    8 ar   
    10    4   18 1    
    11    4    5 ar   
    12    5    6 ar   
    13    5   19 1    
    14    6    7 ar   
    15    6   20 1    
    16    7    8 ar   
    17    8    9 1    
    18    9   11 1    
    19    9   10 2    
    20   10   13 1    
    21   11   12 1    
    22   12   22 1    
    23   12   13 1    
    24   12   21 1    
    25   13   17 1    
    26   13   14 1    
    27   14   15 1    
    28   14   16 2    
    29   17   24 1    
    30   17   23 1    
    31   17   25 1    
    32   26   27 1    
    33   27   28 ar   
    34   27   32 ar   
    35   28   42 1    
    36   28   29 ar   
    37   29   43 1    
    38   29   30 ar   
    39   30   44 1    
    40   30   31 ar   
    41   31   32 ar   
    42   32   33 1    
    43   33   34 2    
    44   33   35 1    
    45   34   37 1    
    46   35   36 1    
    47   36   37 1    
    48   36   45 1    
    49   36   46 1    
    50   37   38 1    
    51   37   41 1    
    52   38   39 1    
    53   38   40 2    
    54   41   47 1    
    55   41   48 1    
    56   41   49 1    
@<TRIPOS>SUBSTRUCTURE
     1 UNK         1 GROUP             0       ****    0 ROOT    
@<TRIPOS>MOLECULE
024_r2_c1
49   56    1
SMALL
USER_CHARGES


@<TRIPOS>ATOM
      1 Fe1         0.0000    0.0000    0.0000 Fe        1 UNK         0.0000 
      2 O2         -0.1051   -1.8682   -0.0892 O.co2     1 UNK         0.0000 
      3 C3          0.8321   -2.7163    0.4363 C.ar      1 UNK         0.0000 
      4 C4          0.4700   -4.0591    0.6391 C.ar      1 UNK         0.0000 
      5 C5          1.3643   -4.9596    1.2058 C.ar      1 UNK         0.0000 
      6 C6          2.6287   -4.5177    1.5786 C.ar      1 UNK         0.0000 
      7 N7          2.9830   -3.2229    1.3825 N.ar      1 UNK         0.0000 
      8 C8          2.1532   -2.3009    0.8172 C.ar      1 UNK         0.0000 
      9 C9          2.7020   -0.9171    0.6647 C.2       1 UNK         0.0000 
     10 N10         2.1000    0.0000    0.0000 N.pl3     1 UNK         0.0000 
     11 S11         4.2283   -0.3786    1.4501 S.3       1 UNK         0.0000 
     12 C12         3.5607    1.3158    1.3109 C.3       1 UNK         0.0000 
     13 C13         2.6867    1.3114    0.0460 C.3       1 UNK         0.0000 
     14 C14         1.5655    2.3238    0.1216 C.2       1 UNK         0.0000 
     15 O15         0.2793    1.8682    0.0892 O.co2     1 UNK         0.0000 
     16 O16         1.7933    3.5202    0.2073 O.co2     1 UNK         0.0000 
     17 C17         3.5278    1.5309   -1.2210 C.3       1 UNK         0.0000 
     18 H18        -0.5179   -4.4073    0.3618 H         1 UNK         0.0000 
     19 H19         1.0748   -5.9919    1.3603 H         1 UNK         0.0000 
     20 H20         3.3301   -5.2076    2.0301 H         1 UNK         0.0000 
     21 H21         4.3349    2.1114    1.2795 H         1 UNK         0.0000 
     22 H22         2.9413    1.4648    2.2215 H         1 UNK         0.0000 
     23 H23         4.3265    0.7626   -1.3014 H         1 UNK         0.0000 
     24 H24         2.8862    1.4643   -2.1256 H         1 UNK         0.0000 
     25 H25         4.0080    2.5328   -1.1977 H         1 UNK         0.0000 
     26 O26         0.1051    0.0892    1.8682 O.co2     1 UNK         0.0000 
     27 C27        -0.8322   -0.4367    2.7158 C.ar      1 UNK         0.0000 
     28 C28        -0.4714   -0.6389    4.0588 C.ar      1 UNK         0.0000 
     29 C29        -1.3659   -1.2067    4.9589 C.ar      1 UNK         0.0000 
     30 C30        -2.6291   -1.5821    4.5165 C.ar      1 UNK         0.0000 
     31 N31        -2.9836   -1.3841    3.2212 N.ar      1 UNK         0.0000 
     32 C32        -2.1526   -0.8188    2.3006 C.ar      1 UNK         0.0000 
     33 C33        -2.7019   -0.6653    0.9165 C.2       1 UNK         0.0000 
     34 N34        -2.1000    0.0000    0.0000 N.pl3     1 UNK         0.0000 
     35 S35        -4.2289   -1.4498    0.3776 S.3       1 UNK         0.0000 
     36 C36        -3.5607   -1.3107   -1.3163 C.3       1 UNK         0.0000 
     37 C37        -2.6866   -0.0456   -1.3116 C.3       1 UNK         0.0000 
     38 C38        -1.5655   -0.1217   -2.3239 C.2       1 UNK         0.0000 
     39 O39        -0.2793   -0.0892   -1.8682 O.co2     1 UNK         0.0000 
     40 O40        -1.7932   -0.2077   -3.5204 O.co2     1 UNK         0.0000 
     41 C41        -3.5273    1.2215   -1.5311 C.3       1 UNK         0.0000 
     42 H42         0.5163   -0.3620    4.4071 H         1 UNK         0.0000 
     43 H43        -1.0774   -1.3617    5.9906 H         1 UNK         0.0000 
     44 H44        -3.3319   -2.0320    5.2043 H         1 UNK         0.0000 
     45 H45        -4.3347   -1.2795   -2.1122 H         1 UNK         0.0000 
     46 H46        -2.9414   -2.2214   -1.4649 H         1 UNK         0.0000 
     47 H47        -4.3264    1.3017   -0.7634 H         1 UNK         0.0000 
     48 H48        -2.8858    2.1262   -1.4644 H         1 UNK         0.0000 
     49 H49        -4.0071    1.1983   -2.5331 H         1 UNK         0.0000 
@<TRIPOS>BOND
     1    1    2 nc   
     2    1   10 nc   
     3    1   15 nc   
     4    1   26 nc   
     5    1   34 nc   
     6    1   39 nc   
     7    2    3 1    
     8    3    4 ar   
     9    3    8 ar   
    10    4    5 ar   
    11    4   18 1    
    12    5   19 1    
    13    5    6 ar   
    14    6   20 1    
    15    6    7 ar   
    16    7    8 ar   
    17    8    9 1    
    18    9   11 1    
    19    9   10 2    
    20   10   13 1    
    21   11   12 1    
    22   12   22 1    
    23   12   13 1    
    24   12   21 1    
    25   13   14 1    
    26   13   17 1    
    27   14   16 2    
    28   14   15 1    
    29   17   25 1    
    30   17   23 1    
    31   17   24 1    
    32   26   27 1    
    33   27   28 ar   
    34   27   32 ar   
    35   28   42 1    
    36   28   29 ar   
    37   29   43 1    
    38   29   30 ar   
    39   30   44 1    
    40   30   31 ar   
    41   31   32 ar   
    42   32   33 1    
    43   33   34 2    
    44   33   35 1    
    45   34   37 1    
    46   35   36 1    
    47   36   37 1    
    48   36   45 1    
    49   36   46 1    
    50   37   38 1    
    51   37   41 1    
    52   38   39 1    
    53   38   40 2    
    54   41   48 1    
    55   41   47 1    
    56   41   49 1    
@<TRIPOS>SUBSTRUCTURE
     1 UNK         1 GROUP             0       ****    0 ROOT    
@<TRIPOS>MOLECULE
024_r3_c1
49   56    1
SMALL
USER_CHARGES


@<TRIPOS>ATOM
      1 Fe1         0.0000    0.0000    0.0000 Fe        1 UNK         0.0000 
      2 O2         -0.1655   -1.8554   -0.0594 O.co2     1 UNK         0.0000 
      3 C3          0.7855   -2.7241    0.3903 C.ar      1 UNK         0.0000 
      4 C4          0.4470   -4.0798    0.4907 C.ar      1 UNK         0.0000 
      5 C5          1.3453   -4.9930    1.0251 C.ar      1 UNK         0.0000 
      6 C6          2.5946   -4.5522    1.4661 C.ar      1 UNK         0.0000 
      7 N7          2.9251   -3.2376    1.3722 N.ar      1 UNK         0.0000 
      8 C8          2.0883   -2.3087    0.8319 C.ar      1 UNK         0.0000 
      9 C9          2.5145   -0.8716    0.8586 C.2       1 UNK         0.0000 
     10 N10         2.1000    0.0000    0.0000 N.pl3     1 UNK         0.0000 
     11 S11         3.7328   -0.2632    2.0220 S.3       1 UNK         0.0000 
     12 C12         3.2136    1.4164    1.5703 C.3       1 UNK         0.0000 
     13 C13         2.5634    1.3651    0.1716 C.3       1 UNK         0.0000 
     14 C14         1.3853    2.3417    0.1415 C.2       1 UNK         0.0000 
     15 O15         0.1090    1.8554    0.0594 O.co2     1 UNK         0.0000 
     16 O16         1.5702    3.5407    0.2725 O.co2     1 UNK         0.0000 
     17 C17         3.5550    1.6824   -0.9634 C.3       1 UNK         0.0000 
     18 H18        -0.5346   -4.4091    0.1769 H         1 UNK         0.0000 
     19 H19         1.0736   -6.0364    1.1147 H         1 UNK         0.0000 
     20 H20         3.2947   -5.2533    1.8958 H         1 UNK         0.0000 
     21 H21         2.4498    1.6272    2.3483 H         1 UNK         0.0000 
     22 H22         4.0170    2.1818    1.6321 H         1 UNK         0.0000 
     23 H23         3.9616    2.7091   -0.8550 H         1 UNK         0.0000 
     24 H24         4.3963    0.9588   -0.9657 H         1 UNK         0.0000 
     25 H25         3.0340    1.6169   -1.9448 H         1 UNK         0.0000 
     26 O26         0.1655    0.0594    1.8554 O.co2     1 UNK         0.0000 
     27 C27        -0.7873   -0.3872    2.7257 C.ar      1 UNK         0.0000 
     28 C28        -0.4443   -0.4885    4.0774 C.ar      1 UNK         0.0000 
     29 C29        -1.3477   -1.0232    4.9932 C.ar      1 UNK         0.0000 
     30 C30        -2.5946   -1.4633    4.5507 C.ar      1 UNK         0.0000 
     31 N31        -2.9243   -1.3683    3.2351 N.ar      1 UNK         0.0000 
     32 C32        -2.0861   -0.8298    2.3066 C.ar      1 UNK         0.0000 
     33 C33        -2.5131   -0.8581    0.8718 C.2       1 UNK         0.0000 
     34 N34        -2.1000    0.0000    0.0000 N.pl3     1 UNK         0.0000 
     35 S35        -3.7306   -2.0236    0.2644 S.3       1 UNK         0.0000 
     36 C36        -3.2125   -1.5732   -1.4160 C.3       1 UNK         0.0000 
     37 C37        -2.5625   -0.1725   -1.3643 C.3       1 UNK         0.0000 
     38 C38        -1.3869   -0.1420   -2.3405 C.2       1 UNK         0.0000 
     39 O39        -0.1090   -0.0594   -1.8554 O.co2     1 UNK         0.0000 
     40 O40        -1.5713   -0.2656   -3.5401 O.co2     1 UNK         0.0000 
     41 C41        -3.5548    0.9599   -1.6814 C.3       1 UNK         0.0000 
     42 H42         0.5354   -0.1757    4.4116 H         1 UNK         0.0000 
     43 H43        -1.0765   -1.1144    6.0373 H         1 UNK         0.0000 
     44 H44        -3.2968   -1.8953    5.2511 H         1 UNK         0.0000 
     45 H45        -2.4478   -2.3487   -1.6272 H         1 UNK         0.0000 
     46 H46        -4.0153   -1.6350   -2.1828 H         1 UNK         0.0000 
     47 H47        -3.9616    0.8526   -2.7092 H         1 UNK         0.0000 
     48 H48        -4.3998    0.9627   -0.9605 H         1 UNK         0.0000 
     49 H49        -3.0374    1.9433   -1.6162 H         1 UNK         0.0000 
@<TRIPOS>BOND
     1    1    2 nc   
     2    1   10 nc   
     3    1   15 nc   
     4    1   26 nc   
     5    1   34 nc   
     6    1   39 nc   
     7    2    3 1    
     8    3    4 ar   
     9    3    8 ar   
    10    4    5 ar   
    11    4   18 1    
    12    5   19 1    
    13    5    6 ar   
    14    6   20 1    
    15    6    7 ar   
    16    7    8 ar   
    17    8    9 1    
    18    9   11 1    
    19    9   10 2    
    20   10   13 1    
    21   11   12 1    
    22   12   22 1    
    23   12   21 1    
    24   12   13 1    
    25   13   17 1    
    26   13   14 1    
    27   14   16 2    
    28   14   15 1    
    29   17   23 1    
    30   17   24 1    
    31   17   25 1    
    32   26   27 1    
    33   27   28 ar   
    34   27   32 ar   
    35   28   42 1    
    36   28   29 ar   
    37   29   43 1    
    38   29   30 ar   
    39   30   44 1    
    40   30   31 ar   
    41   31   32 ar   
    42   32   33 1    
    43   33   35 1    
    44   33   34 2    
    45   34   37 1    
    46   35   36 1    
    47   36   37 1    
    48   36   45 1    
    49   36   46 1    
    50   37   41 1    
    51   37   38 1    
    52   38   39 1    
    53   38   40 2    
    54   41   49 1    
    55   41   48 1    
    56   41   47 1    
@<TRIPOS>SUBSTRUCTURE
     1 UNK         1 GROUP             0       ****    0 ROOT    
@<TRIPOS>MOLECULE
024_r4_c1
53   60    1
SMALL
USER_CHARGES


@<TRIPOS>ATOM
      1 Fe1         0.0000    0.0000    0.0000 Fe        1 UNK         0.0000 
      2 O2          0.0002   -1.9044   -0.0799 O.co2     1 UNK         0.0000 
      3 C3          0.9265   -2.6870   -0.6859 C.2       1 UNK         0.0000 
      4 C4          0.5534   -3.9922   -1.0118 C.2       1 UNK         0.0000 
      5 C5          1.4449   -4.8385   -1.6601 C.2       1 UNK         0.0000 
      6 C6          2.7120   -4.3694   -1.9874 C.3       1 UNK         0.0000 
      7 N7          3.0788   -3.0981   -1.6722 N.pl3     1 UNK         0.0000 
      8 H8          4.0436   -2.8072   -1.9428 H         1 UNK         0.0000 
      9 C9          2.2408   -2.2281   -1.0246 C.2       1 UNK         0.0000 
     10 C10         2.7519   -0.8424   -0.7205 C.2       1 UNK         0.0000 
     11 N11         2.1000    0.0000    0.0000 N.pl3     1 UNK         0.0000 
     12 S12         4.3204   -0.2062   -1.3461 S.3       1 UNK         0.0000 
     13 C13         3.6226    1.4514   -1.0649 C.3       1 UNK         0.0000 
     14 C14         2.7010    1.2987    0.1491 C.3       1 UNK         0.0000 
     15 C15         1.6092    2.3338    0.1549 C.2       1 UNK         0.0000 
     16 O16         0.3246    1.9044    0.0799 O.co2     1 UNK         0.0000 
     17 O17         1.8583    3.5266    0.2351 O.co2     1 UNK         0.0000 
     18 C18         3.4814    1.3409    1.4746 C.3       1 UNK         0.0000 
     19 H19        -0.4384   -4.3506   -0.7633 H         1 UNK         0.0000 
     20 H20         1.1530   -5.8497   -1.9126 H         1 UNK         0.0000 
     21 H21         3.4088   -5.0230   -2.4969 H         1 UNK         0.0000 
     22 H22         3.0288    1.6807   -1.9780 H         1 UNK         0.0000 
     23 H23         4.3822    2.2477   -0.9122 H         1 UNK         0.0000 
     24 H24         3.9741    2.3281    1.6058 H         1 UNK         0.0000 
     25 H25         2.7932    1.1719    2.3312 H         1 UNK         0.0000 
     26 H26         4.2647    0.5535    1.5000 H         1 UNK         0.0000 
     27 O27        -0.0002    0.0799    1.9044 O.co2     1 UNK         0.0000 
     28 C28        -0.9268    0.6854    2.6871 C.2       1 UNK         0.0000 
     29 C29        -0.5536    1.0101    3.9926 C.2       1 UNK         0.0000 
     30 C30        -1.4449    1.6586    4.8388 C.2       1 UNK         0.0000 
     31 C31        -2.7119    1.9863    4.3701 C.3       1 UNK         0.0000 
     32 N32        -3.0789    1.6714    3.0986 N.pl3     1 UNK         0.0000 
     33 H33        -4.0435    1.9418    2.8077 H         1 UNK         0.0000 
     34 C34        -2.2408    1.0241    2.2285 C.2       1 UNK         0.0000 
     35 C35        -2.7519    0.7205    0.8425 C.2       1 UNK         0.0000 
     36 N36        -2.1000    0.0000    0.0000 N.pl3     1 UNK         0.0000 
     37 S37        -4.3203    1.3462    0.2061 S.3       1 UNK         0.0000 
     38 C38        -3.6224    1.0653   -1.4515 C.3       1 UNK         0.0000 
     39 C39        -2.7010   -0.1490   -1.2988 C.3       1 UNK         0.0000 
     40 C40        -1.6092   -0.1544   -2.3339 C.2       1 UNK         0.0000 
     41 O41        -0.3246   -0.0799   -1.9044 O.co2     1 UNK         0.0000 
     42 O42        -1.8583   -0.2343   -3.5267 O.co2     1 UNK         0.0000 
     43 C43        -3.4815   -1.4744   -1.3410 C.3       1 UNK         0.0000 
     44 H44         0.4379    0.7618    4.3508 H         1 UNK         0.0000 
     45 H45        -1.1536    1.9103    5.8504 H         1 UNK         0.0000 
     46 H46        -3.4093    2.4951    5.0238 H         1 UNK         0.0000 
     47 H47        -3.0284    1.9784   -1.6805 H         1 UNK         0.0000 
     48 H48        -4.3819    0.9128   -2.2478 H         1 UNK         0.0000 
     49 H49        -3.9739   -1.6051   -2.3286 H         1 UNK         0.0000 
     50 H50        -2.7935   -2.3310   -1.1722 H         1 UNK         0.0000 
     51 H51        -4.2651   -1.4996   -0.5541 H         1 UNK         0.0000 
     52 H52         3.0892   -4.7168   -1.0256 H         1 UNK         0.0000 
     53 H53        -2.3349    2.9484    4.0232 H         1 UNK         0.0000 
@<TRIPOS>BOND
     1    1    2 nc   
     2    1   11 nc   
     3    1   16 nc   
     4    1   27 nc   
     5    1   36 nc   
     6    1   41 nc   
     7    2    3 1    
     8    3    4 1    
     9    3    9 2    
    10    4   19 1    
    11    4    5 2    
    12    5    6 1    
    13    5   20 1    
    14    6    7 1    
    15    6   21 1    
    16    6   52 1    
    17    7    9 1    
    18    7    8 1    
    19    9   10 1    
    20   10   12 1    
    21   10   11 2    
    22   11   14 1    
    23   12   13 1    
    24   13   23 1    
    25   13   14 1    
    26   13   22 1    
    27   14   15 1    
    28   14   18 1    
    29   15   17 2    
    30   15   16 1    
    31   18   26 1    
    32   18   24 1    
    33   18   25 1    
    34   27   28 1    
    35   28   29 1    
    36   28   34 2    
    37   29   44 1    
    38   29   30 2    
    39   30   45 1    
    40   30   31 1    
    41   31   46 1    
    42   31   32 1    
    43   31   53 1    
    44   32   33 1    
    45   32   34 1    
    46   34   35 1    
    47   35   36 2    
    48   35   37 1    
    49   36   39 1    
    50   37   38 1    
    51   38   39 1    
    52   38   47 1    
    53   38   48 1    
    54   39   40 1    
    55   39   43 1    
    56   40   41 1    
    57   40   42 2    
    58   43   50 1    
    59   43   51 1    
    60   43   49 1    
@<TRIPOS>SUBSTRUCTURE
     1 UNK         1 GROUP             0       ****    0 ROOT    
@<TRIPOS>MOLECULE
024_r5_c1
49   56    1
SMALL
USER_CHARGES


@<TRIPOS>ATOM
      1 Fe1         0.0000    0.0000    0.0000 Fe        1 UNK         0.0000 
      2 O2         -0.0575   -1.9358   -0.0730 O.co2     1 UNK         0.0000 
      3 C3          0.9024   -2.7663    0.4312 C.ar      1 UNK         0.0000 
      4 C4          0.6024   -4.1343    0.5703 C.ar      1 UNK         0.0000 
      5 C5          1.5228   -5.0084    1.1356 C.ar      1 UNK         0.0000 
      6 C6          2.7515   -4.5144    1.5662 C.ar      1 UNK         0.0000 
      7 N7          3.0389   -3.1934    1.4332 N.ar      1 UNK         0.0000 
      8 C8          2.1774   -2.3021    0.8689 C.ar      1 UNK         0.0000 
      9 C9          2.5691   -0.8584    0.8453 C.2       1 UNK         0.0000 
     10 N10         2.1000    0.0000    0.0000 N.pl3     1 UNK         0.0000 
     11 S11         3.8973   -0.2563    1.8926 S.3       1 UNK         0.0000 
     12 C12         3.4152    1.4240    1.4221 C.3       1 UNK         0.0000 
     13 C13         2.6428    1.3453    0.0815 C.3       1 UNK         0.0000 
     14 C14         1.5321    2.3693    0.0955 C.2       1 UNK         0.0000 
     15 O15         0.2448    1.9358    0.0730 O.co2     1 UNK         0.0000 
     16 O16         1.7692    3.5594    0.1606 O.co2     1 UNK         0.0000 
     17 C17         3.5615    1.5666   -1.1303 C.3       1 UNK         0.0000 
     18 H18        -0.3658   -4.5163    0.2603 H         1 UNK         0.0000 
     19 H19         1.2796   -6.0568    1.2542 H         1 UNK         0.0000 
     20 H20         3.4753   -5.1831    2.0121 H         1 UNK         0.0000 
     21 H21         4.2561    2.1504    1.3749 H         1 UNK         0.0000 
     22 H22         2.7414    1.7103    2.2495 H         1 UNK         0.0000 
     23 H23         2.9733    1.4894   -2.0730 H         1 UNK         0.0000 
     24 H24         4.3702    0.8035   -1.1678 H         1 UNK         0.0000 
     25 H25         4.0285    2.5738   -1.1008 H         1 UNK         0.0000 
     26 O26         0.0575    0.0730    1.9358 O.co2     1 UNK         0.0000 
     27 C27        -0.9012   -0.4265    2.7683 C.ar      1 UNK         0.0000 
     28 C28        -0.5984   -0.5716    4.1332 C.ar      1 UNK         0.0000 
     29 C29        -1.5213   -1.1402    5.0045 C.ar      1 UNK         0.0000 
     30 C30        -2.7492   -1.5694    4.5111 C.ar      1 UNK         0.0000 
     31 N31        -3.0377   -1.4334    3.1897 N.ar      1 UNK         0.0000 
     32 C32        -2.1748   -0.8658    2.3008 C.ar      1 UNK         0.0000 
     33 C33        -2.5711   -0.8446    0.8595 C.2       1 UNK         0.0000 
     34 N34        -2.1000    0.0000    0.0000 N.pl3     1 UNK         0.0000 
     35 S35        -3.8959   -1.8934    0.2559 S.3       1 UNK         0.0000 
     36 C36        -3.4152   -1.4211   -1.4231 C.3       1 UNK         0.0000 
     37 C37        -2.6459   -0.0849   -1.3427 C.3       1 UNK         0.0000 
     38 C38        -1.5305   -0.0962   -2.3655 C.2       1 UNK         0.0000 
     39 O39        -0.2448   -0.0730   -1.9358 O.co2     1 UNK         0.0000 
     40 O40        -1.7724   -0.1761   -3.5600 O.co2     1 UNK         0.0000 
     41 C41        -3.5618    1.1321   -1.5694 C.3       1 UNK         0.0000 
     42 H42         0.3670   -0.2619    4.5148 H         1 UNK         0.0000 
     43 H43        -1.2771   -1.2620    6.0520 H         1 UNK         0.0000 
     44 H44        -3.4713   -2.0226    5.1765 H         1 UNK         0.0000 
     45 H45        -4.2553   -1.3770   -2.1496 H         1 UNK         0.0000 
     46 H46        -2.7409   -2.2526   -1.7097 H         1 UNK         0.0000 
     47 H47        -2.9697    2.0716   -1.4926 H         1 UNK         0.0000 
     48 H48        -4.3684    1.1666   -0.8067 H         1 UNK         0.0000 
     49 H49        -4.0251    1.0976   -2.5782 H         1 UNK         0.0000 
@<TRIPOS>BOND
     1    1    2 nc   
     2    1   10 nc   
     3    1   15 nc   
     4    1   26 nc   
     5    1   34 nc   
     6    1   39 nc   
     7    2    3 1    
     8    3    4 ar   
     9    3    8 ar   
    10    4    5 ar   
    11    4   18 1    
    12    5   19 1    
    13    5    6 ar   
    14    6   20 1    
    15    6    7 ar   
    16    7    8 ar   
    17    8    9 1    
    18    9   11 1    
    19    9   10 2    
    20   10   13 1    
    21   11   12 1    
    22   12   22 1    
    23   12   13 1    
    24   12   21 1    
    25   13   17 1    
    26   13   14 1    
    27   14   16 2    
    28   14   15 1    
    29   17   25 1    
    30   17   23 1    
    31   17   24 1    
    32   26   27 1    
    33   27   28 ar   
    34   27   32 ar   
    35   28   42 1    
    36   28   29 ar   
    37   29   43 1    
    38   29   30 ar   
    39   30   44 1    
    40   30   31 ar   
    41   31   32 ar   
    42   32   33 1    
    43   33   34 2    
    44   33   35 1    
    45   34   37 1    
    46   35   36 1    
    47   36   37 1    
    48   36   45 1    
    49   36   46 1    
    50   37   41 1    
    51   37   38 1    
    52   38   39 1    
    53   38   40 2    
    54   41   47 1    
    55   41   48 1    
    56   41   49 1    
@<TRIPOS>SUBSTRUCTURE
     1 UNK         1 GROUP             0       ****    0 ROOT    
@<TRIPOS>MOLECULE
025_r1_c1
77   85    1
SMALL
USER_CHARGES


@<TRIPOS>ATOM
      1 Fe1         2.0167   -2.3092    0.9717 Fe        1 UNK         0.0000 
      2 C2         -2.3297   -4.4513   -0.6783 C.ar      1 UNK         0.0000 
      3 C3         -1.4045   -5.3883   -1.1547 C.ar      1 UNK         0.0000 
      4 C4         -0.1002   -5.3689   -0.6774 C.ar      1 UNK         0.0000 
      5 C5          0.2381   -4.3879    0.2463 C.ar      1 UNK         0.0000 
      6 O6          1.4144   -4.2463    0.8385 O.co2     1 UNK         0.0000 
      7 C7         -0.6013   -3.4508    0.6882 C.ar      1 UNK         0.0000 
      8 O8          0.0958   -2.6745    1.5519 O.co2     1 UNK         0.0000 
      9 C9         -1.9671   -3.4420    0.2655 C.ar      1 UNK         0.0000 
     10 C10        -3.0962   -2.5604    0.7325 C.2       1 UNK         0.0000 
     11 O11        -4.2220   -3.0226    0.5743 O.2       1 UNK         0.0000 
     12 N12        -2.9921   -1.3194    1.3083 N.am      1 UNK         0.0000 
     13 C13        -4.2287   -0.7140    1.8060 C.3       1 UNK         0.0000 
     14 C14        -4.1921    0.7394    2.3059 C.3       1 UNK         0.0000 
     15 C15        -4.2011    1.7922    1.1768 C.3       1 UNK         0.0000 
     16 N16        -2.8681    2.2421    0.7886 N.am      1 UNK         0.0000 
     17 C17        -2.3712    1.9495   -0.4603 C.2       1 UNK         0.0000 
     18 O18        -2.9883    1.1805   -1.1876 O.2       1 UNK         0.0000 
     19 C19        -1.0543    2.5007   -0.9843 C.3       1 UNK         0.0000 
     20 H20        -0.6820    3.3598   -0.3936 H         1 UNK         0.0000 
     21 N21        -0.1059    1.4282   -0.9568 N.2       1 UNK         0.0000 
     22 C22         0.2063    1.0895   -2.1423 C.2       1 UNK         0.0000 
     23 O23        -0.3902    1.8392   -3.0884 O.3       1 UNK         0.0000 
     24 C24        -1.1107    2.8537   -2.4934 C.3       1 UNK         0.0000 
     25 H25        -2.1536    2.8876   -2.8786 H         1 UNK         0.0000 
     26 C26        -0.4252    4.1855   -2.8072 C.3       1 UNK         0.0000 
     27 C27         1.1316   -0.0239   -2.4515 C.ar      1 UNK         0.0000 
     28 C28         1.8440   -0.7596   -1.4694 C.ar      1 UNK         0.0000 
     29 O29         1.8626   -0.6330   -0.1252 O.co2     1 UNK         0.0000 
     30 C30         2.6486   -1.7570   -1.8082 C.ar      1 UNK         0.0000 
     31 O31         3.1866   -2.2862   -0.7147 O.co2     1 UNK         0.0000 
     32 C32         2.8540   -2.1560   -3.1284 C.ar      1 UNK         0.0000 
     33 C33         2.1759   -1.4620   -4.1374 C.ar      1 UNK         0.0000 
     34 C34         1.3196   -0.3979   -3.8023 C.ar      1 UNK         0.0000 
     35 C35        -2.1544    3.0559    1.7766 C.3       1 UNK         0.0000 
     36 C36        -0.8576    2.3943    2.2566 C.3       1 UNK         0.0000 
     37 C37        -0.3528    3.0642    3.5395 C.3       1 UNK         0.0000 
     38 C38         1.0733    2.6504    3.9023 C.3       1 UNK         0.0000 
     39 N39         1.2764    1.2138    3.8394 N.am      1 UNK         0.0000 
     40 C40         1.6643    0.4592    4.9009 C.2       1 UNK         0.0000 
     41 O41         1.7043    0.9634    6.0151 O.2       1 UNK         0.0000 
     42 C42         2.1152   -0.9559    4.7444 C.ar      1 UNK         0.0000 
     43 C43         2.4179   -1.5961    3.5107 C.ar      1 UNK         0.0000 
     44 O44         2.4266   -1.3224    2.1707 O.co2     1 UNK         0.0000 
     45 C45         2.9082   -2.6829    3.4393 C.ar      1 UNK         0.0000 
     46 O46         3.1142   -2.6930    2.1091 O.co2     1 UNK         0.0000 
     47 C47         3.1962   -3.5412    4.4976 C.ar      1 UNK         0.0000 
     48 C48         2.8793   -3.0574    5.7786 C.ar      1 UNK         0.0000 
     49 C49         2.3522   -1.7487    5.9078 C.ar      1 UNK         0.0000 
     50 H50        -3.3392   -4.5242   -1.0638 H         1 UNK         0.0000 
     51 H51        -1.7074   -6.1370   -1.8753 H         1 UNK         0.0000 
     52 H52         0.6257   -6.0994   -1.0105 H         1 UNK         0.0000 
     53 H53        -2.0911   -0.8316    1.3961 H         1 UNK         0.0000 
     54 H54        -5.0145   -0.7539    1.0177 H         1 UNK         0.0000 
     55 H55        -4.5799   -1.3491    2.6501 H         1 UNK         0.0000 
     56 H56        -5.1898    0.8572    2.7857 H         1 UNK         0.0000 
     57 H57        -3.4446    0.9248    3.1048 H         1 UNK         0.0000 
     58 H58        -4.8136    1.4238    0.3254 H         1 UNK         0.0000 
     59 H59        -4.7483    2.6953    1.5306 H         1 UNK         0.0000 
     60 H60        -0.9634    5.0180   -2.3069 H         1 UNK         0.0000 
     61 H61        -0.4331    4.3634   -3.9035 H         1 UNK         0.0000 
     62 H62         0.6296    4.1735   -2.4561 H         1 UNK         0.0000 
     63 H63         3.5142   -2.9798   -3.3666 H         1 UNK         0.0000 
     64 H64         2.3081   -1.7469   -5.1731 H         1 UNK         0.0000 
     65 H65         0.8003    0.1219   -4.5978 H         1 UNK         0.0000 
     66 H66        -2.8012    3.1913    2.6732 H         1 UNK         0.0000 
     67 H67        -1.9562    4.0771    1.3859 H         1 UNK         0.0000 
     68 H68        -1.0458    1.3222    2.4813 H         1 UNK         0.0000 
     69 H69        -0.0785    2.4572    1.4772 H         1 UNK         0.0000 
     70 H70        -0.3464    4.1708    3.4261 H         1 UNK         0.0000 
     71 H71        -1.0492    2.8013    4.3659 H         1 UNK         0.0000 
     72 H72         1.3198    3.0745    4.8997 H         1 UNK         0.0000 
     73 H73         1.7721    3.1103    3.1697 H         1 UNK         0.0000 
     74 H74         1.1655    0.7806    2.9201 H         1 UNK         0.0000 
     75 H75         3.6442   -4.5140    4.3414 H         1 UNK         0.0000 
     76 H76         3.0686   -3.6639    6.6542 H         1 UNK         0.0000 
     77 H77         2.1503   -1.3632    6.8987 H         1 UNK         0.0000 
@<TRIPOS>BOND
     1    1    6 nc   
     2    1    8 nc   
     3    1   29 nc   
     4    1   31 nc   
     5    1   44 nc   
     6    1   46 nc   
     7    2    9 ar   
     8    2    3 ar   
     9    2   50 1    
    10    3    4 ar   
    11    3   51 1    
    12    4    5 ar   
    13    4   52 1    
    14    5    7 ar   
    15    5    6 1    
    16    7    8 1    
    17    7    9 ar   
    18    9   10 1    
    19   10   12 am   BACKBONE|DICT|INTERRES
    20   10   11 2    
    21   12   53 1    
    22   12   13 1    
    23   13   14 1    
    24   13   55 1    
    25   13   54 1    
    26   14   56 1    
    27   14   57 1    
    28   14   15 1    
    29   15   59 1    
    30   15   16 1    
    31   15   58 1    
    32   16   35 1    
    33   16   17 am   BACKBONE|DICT|INTERRES
    34   17   18 2    
    35   17   19 1    
    36   19   21 1    
    37   19   20 1    
    38   19   24 1    
    39   21   22 2    
    40   22   23 1    
    41   22   27 1    
    42   23   24 1    
    43   24   25 1    
    44   24   26 1    
    45   26   62 1    
    46   26   60 1    
    47   26   61 1    
    48   27   28 ar   
    49   27   34 ar   
    50   28   29 1    
    51   28   30 ar   
    52   30   31 1    
    53   30   32 ar   
    54   32   33 ar   
    55   32   63 1    
    56   33   34 ar   
    57   33   64 1    
    58   34   65 1    
    59   35   36 1    
    60   35   66 1    
    61   35   67 1    
    62   36   68 1    
    63   36   37 1    
    64   36   69 1    
    65   37   38 1    
    66   37   71 1    
    67   37   70 1    
    68   38   72 1    
    69   38   39 1    
    70   38   73 1    
    71   39   40 am   BACKBONE|DICT|INTERRES
    72   39   74 1    
    73   40   41 2    
    74   40   42 1    
    75   42   49 ar   
    76   42   43 ar   
    77   43   44 1    
    78   43   45 ar   
    79   45   47 ar   
    80   45   46 1    
    81   47   48 ar   
    82   47   75 1    
    83   48   49 ar   
    84   48   76 1    
    85   49   77 1    
@<TRIPOS>SUBSTRUCTURE
     1 UNK         1 GROUP             0       ****    0 ROOT    
@<TRIPOS>MOLECULE
025_r2_c1
77   85    1
SMALL
USER_CHARGES


@<TRIPOS>ATOM
      1 Fe1         1.7259   -2.6216   -0.6585 Fe        1 UNK         0.0000 
      2 C2         -1.5824   -3.7612    2.8340 C.ar      1 UNK         0.0000 
      3 C3         -0.6688   -4.8058    3.0467 C.ar      1 UNK         0.0000 
      4 C4          0.2701   -5.1092    2.0670 C.ar      1 UNK         0.0000 
      5 C5          0.2633   -4.3408    0.9117 C.ar      1 UNK         0.0000 
      6 O6          1.0804   -4.4522   -0.1291 O.co2     1 UNK         0.0000 
      7 C7         -0.5711   -3.3330    0.6844 C.ar      1 UNK         0.0000 
      8 O8         -0.2269   -2.8263   -0.5277 O.co2     1 UNK         0.0000 
      9 C9         -1.5700   -2.9781    1.6387 C.ar      1 UNK         0.0000 
     10 C10        -2.6298   -1.9095    1.5431 C.2       1 UNK         0.0000 
     11 O11        -3.5383   -1.9874    2.3652 O.2       1 UNK         0.0000 
     12 N12        -2.6771   -0.8796    0.6381 N.am      1 UNK         0.0000 
     13 C13        -3.8719   -0.0294    0.6658 C.3       1 UNK         0.0000 
     14 C14        -3.9498    1.1912   -0.2666 C.3       1 UNK         0.0000 
     15 C15        -3.3633    2.5517    0.2217 C.3       1 UNK         0.0000 
     16 N16        -1.9567    2.8446   -0.0870 N.am      1 UNK         0.0000 
     17 C17        -0.9157    2.4718    0.7366 C.2       1 UNK         0.0000 
     18 O18         0.2189    2.8578    0.4786 O.2       1 UNK         0.0000 
     19 C19        -1.0714    1.6169    1.9821 C.3       1 UNK         0.0000 
     20 H20        -2.0902    1.2303    2.1086 H         1 UNK         0.0000 
     21 N21        -0.1262    0.5554    1.8370 N.2       1 UNK         0.0000 
     22 C22         0.7629    0.6270    2.7491 C.2       1 UNK         0.0000 
     23 O23         0.5317    1.5916    3.6561 O.3       1 UNK         0.0000 
     24 C24        -0.6351    2.2533    3.3338 C.3       1 UNK         0.0000 
     25 H25        -1.3835    1.9936    4.1158 H         1 UNK         0.0000 
     26 C26        -0.4441    3.7726    3.3402 C.3       1 UNK         0.0000 
     27 C27         1.9406   -0.2653    2.7761 C.ar      1 UNK         0.0000 
     28 C28         2.3408   -0.9934    1.6425 C.ar      1 UNK         0.0000 
     29 O29         1.8515   -1.0054    0.4028 O.co2     1 UNK         0.0000 
     30 C30         3.3650   -1.8021    1.6365 C.ar      1 UNK         0.0000 
     31 O31         3.4604   -2.3279    0.4099 O.co2     1 UNK         0.0000 
     32 C32         4.1651   -2.0062    2.7617 C.ar      1 UNK         0.0000 
     33 C33         3.8372   -1.2929    3.9314 C.ar      1 UNK         0.0000 
     34 C34         2.7271   -0.4169    3.9390 C.ar      1 UNK         0.0000 
     35 C35        -1.6645    3.7752   -1.1925 C.3       1 UNK         0.0000 
     36 C36        -0.8613    3.1248   -2.3340 C.3       1 UNK         0.0000 
     37 C37        -1.6981    2.0720   -3.0643 C.3       1 UNK         0.0000 
     38 C38        -0.9576    1.4350   -4.2328 C.3       1 UNK         0.0000 
     39 N39         0.1214    0.5976   -3.7429 N.am      1 UNK         0.0000 
     40 C40         1.4222    0.7614   -4.1003 C.2       1 UNK         0.0000 
     41 O41         1.7209    1.6984   -4.8294 O.2       1 UNK         0.0000 
     42 C42         2.5149   -0.1782   -3.6749 C.ar      1 UNK         0.0000 
     43 C43         2.3928   -1.3562   -2.8754 C.ar      1 UNK         0.0000 
     44 O44         1.4179   -2.0538   -2.1997 O.co2     1 UNK         0.0000 
     45 C45         3.3771   -2.0996   -2.6278 C.ar      1 UNK         0.0000 
     46 O46         2.7719   -3.0638   -1.9071 O.co2     1 UNK         0.0000 
     47 C47         4.6875   -1.8926   -3.0331 C.ar      1 UNK         0.0000 
     48 C48         4.9235   -0.7373   -3.7879 C.ar      1 UNK         0.0000 
     49 C49         3.8438    0.1128   -4.1155 C.ar      1 UNK         0.0000 
     50 H50        -2.2938   -3.5701    3.6272 H         1 UNK         0.0000 
     51 H51        -0.6949   -5.3720    3.9682 H         1 UNK         0.0000 
     52 H52         0.9858   -5.9085    2.2070 H         1 UNK         0.0000 
     53 H53        -1.9211   -0.7237   -0.0463 H         1 UNK         0.0000 
     54 H54        -4.7203   -0.6960    0.3865 H         1 UNK         0.0000 
     55 H55        -4.0830    0.3332    1.6961 H         1 UNK         0.0000 
     56 H56        -3.7547    0.9407   -1.3207 H         1 UNK         0.0000 
     57 H57        -5.0446    1.4025   -0.2474 H         1 UNK         0.0000 
     58 H58        -3.9830    3.3009   -0.3182 H         1 UNK         0.0000 
     59 H59        -3.6011    2.7649    1.2861 H         1 UNK         0.0000 
     60 H60        -1.3958    4.2753    3.0667 H         1 UNK         0.0000 
     61 H61         0.3548    4.0849    2.6378 H         1 UNK         0.0000 
     62 H62        -0.1474    4.1032    4.3579 H         1 UNK         0.0000 
     63 H63         5.0109   -2.6805    2.7342 H         1 UNK         0.0000 
     64 H64         4.4345   -1.4169    4.8251 H         1 UNK         0.0000 
     65 H65         2.4796    0.1221    4.8449 H         1 UNK         0.0000 
     66 H66        -2.5885    4.1949   -1.6459 H         1 UNK         0.0000 
     67 H67        -1.1028    4.6471   -0.7907 H         1 UNK         0.0000 
     68 H68        -0.5976    3.9211   -3.0642 H         1 UNK         0.0000 
     69 H69         0.0840    2.6820   -1.9598 H         1 UNK         0.0000 
     70 H70        -2.6201    2.5567   -3.4545 H         1 UNK         0.0000 
     71 H71        -1.9696    1.2625   -2.3673 H         1 UNK         0.0000 
     72 H72        -0.6159    2.2220   -4.9398 H         1 UNK         0.0000 
     73 H73        -1.6686    0.7801   -4.7811 H         1 UNK         0.0000 
     74 H74        -0.1589   -0.1546   -3.1176 H         1 UNK         0.0000 
     75 H75         5.4823   -2.5766   -2.7664 H         1 UNK         0.0000 
     76 H76         5.9252   -0.5032   -4.1241 H         1 UNK         0.0000 
     77 H77         4.0571    0.9908   -4.7117 H         1 UNK         0.0000 
@<TRIPOS>BOND
     1    1    6 nc   
     2    1    8 nc   
     3    1   29 nc   
     4    1   31 nc   
     5    1   44 nc   
     6    1   46 nc   
     7    2    3 ar   
     8    2   50 1    
     9    2    9 ar   
    10    3   51 1    
    11    3    4 ar   
    12    4   52 1    
    13    4    5 ar   
    14    5    6 1    
    15    5    7 ar   
    16    7    9 ar   
    17    7    8 1    
    18    9   10 1    
    19   10   11 2    
    20   10   12 am   BACKBONE|DICT|INTERRES
    21   12   13 1    
    22   12   53 1    
    23   13   55 1    
    24   13   14 1    
    25   13   54 1    
    26   14   57 1    
    27   14   15 1    
    28   14   56 1    
    29   15   59 1    
    30   15   16 1    
    31   15   58 1    
    32   16   17 am   BACKBONE|DICT|INTERRES
    33   16   35 1    
    34   17   19 1    
    35   17   18 2    
    36   19   20 1    
    37   19   24 1    
    38   19   21 1    
    39   21   22 2    
    40   22   27 1    
    41   22   23 1    
    42   23   24 1    
    43   24   26 1    
    44   24   25 1    
    45   26   62 1    
    46   26   60 1    
    47   26   61 1    
    48   27   34 ar   
    49   27   28 ar   
    50   28   29 1    
    51   28   30 ar   
    52   30   32 ar   
    53   30   31 1    
    54   32   33 ar   
    55   32   63 1    
    56   33   34 ar   
    57   33   64 1    
    58   34   65 1    
    59   35   67 1    
    60   35   36 1    
    61   35   66 1    
    62   36   69 1    
    63   36   37 1    
    64   36   68 1    
    65   37   71 1    
    66   37   38 1    
    67   37   70 1    
    68   38   39 1    
    69   38   72 1    
    70   38   73 1    
    71   39   74 1    
    72   39   40 am   BACKBONE|DICT|INTERRES
    73   40   42 1    
    74   40   41 2    
    75   42   43 ar   
    76   42   49 ar   
    77   43   45 ar   
    78   43   44 1    
    79   45   46 1    
    80   45   47 ar   
    81   47   75 1    
    82   47   48 ar   
    83   48   49 ar   
    84   48   76 1    
    85   49   77 1    
@<TRIPOS>SUBSTRUCTURE
     1 UNK         1 GROUP             0       ****    0 ROOT    
@<TRIPOS>MOLECULE
025_r3_c1
77   85    1
SMALL
USER_CHARGES


@<TRIPOS>ATOM
      1 Fe1        -1.6405    2.7151    0.2545 Fe        1 UNK         0.0000 
      2 C2          3.2055    4.8635    0.8011 C.ar      1 UNK         0.0000 
      3 C3          2.4906    6.0800    0.8720 C.ar      1 UNK         0.0000 
      4 C4          1.1020    6.0916    0.6632 C.ar      1 UNK         0.0000 
      5 C5          0.4910    4.8748    0.3733 C.ar      1 UNK         0.0000 
      6 O6         -0.7881    4.5995    0.1079 O.co2     1 UNK         0.0000 
      7 C7          1.1453    3.7522    0.2979 C.ar      1 UNK         0.0000 
      8 O8          0.2357    2.8652   -0.0812 O.co2     1 UNK         0.0000 
      9 C9          2.5374    3.6400    0.5254 C.ar      1 UNK         0.0000 
     10 C10         3.3379    2.3640    0.5043 C.2       1 UNK         0.0000 
     11 O11         4.5445    2.4567    0.3214 O.2       1 UNK         0.0000 
     12 N12         2.8015    1.1293    0.7693 N.am      1 UNK         0.0000 
     13 C13         3.6543   -0.0597    0.8021 C.3       1 UNK         0.0000 
     14 C14         2.9566   -1.3383    1.3234 C.3       1 UNK         0.0000 
     15 C15         1.8356   -1.8579    0.4012 C.3       1 UNK         0.0000 
     16 N16         1.1507   -3.1036    0.8155 N.am      1 UNK         0.0000 
     17 C17         0.1933   -3.6569   -0.0163 C.2       1 UNK         0.0000 
     18 O18        -0.3365   -4.7194    0.2870 O.2       1 UNK         0.0000 
     19 C19        -0.1797   -3.0460   -1.3523 C.3       1 UNK         0.0000 
     20 H20         0.7452   -2.8683   -1.9440 H         1 UNK         0.0000 
     21 N21        -0.8518   -1.7821   -1.2562 N.2       1 UNK         0.0000 
     22 C22        -1.7422   -1.7412   -2.1758 C.2       1 UNK         0.0000 
     23 O23        -1.8625   -2.8895   -2.8735 O.3       1 UNK         0.0000 
     24 C24        -1.1442   -3.8646   -2.2302 C.3       1 UNK         0.0000 
     25 H25        -1.8775   -4.4319   -1.6139 H         1 UNK         0.0000 
     26 C26        -0.4356   -4.8081   -3.2000 C.3       1 UNK         0.0000 
     27 C27        -2.5142   -0.5306   -2.5155 C.ar      1 UNK         0.0000 
     28 C28        -2.5628    0.6315   -1.7147 C.ar      1 UNK         0.0000 
     29 O29        -2.0679    0.8851   -0.4906 O.co2     1 UNK         0.0000 
     30 C30        -3.1772    1.7150   -2.1226 C.ar      1 UNK         0.0000 
     31 O31        -3.0030    2.6533   -1.2089 O.co2     1 UNK         0.0000 
     32 C32        -3.8631    1.8058   -3.3330 C.ar      1 UNK         0.0000 
     33 C33        -3.8873    0.6707   -4.1525 C.ar      1 UNK         0.0000 
     34 C34        -3.2106   -0.4949   -3.7484 C.ar      1 UNK         0.0000 
     35 C35         1.4853   -3.8573    2.0374 C.3       1 UNK         0.0000 
     36 C36         0.3502   -3.7689    3.0872 C.3       1 UNK         0.0000 
     37 C37         0.5336   -2.5085    3.9249 C.3       1 UNK         0.0000 
     38 C38        -0.6065   -2.2003    4.9144 C.3       1 UNK         0.0000 
     39 N39        -1.7743   -1.5763    4.2986 N.am      1 UNK         0.0000 
     40 C40        -1.6781   -0.3696    3.6643 C.2       1 UNK         0.0000 
     41 O41        -0.5807    0.1503    3.5155 O.2       1 UNK         0.0000 
     42 C42        -2.8469    0.4369    3.2400 C.ar      1 UNK         0.0000 
     43 C43        -2.6191    1.5524    2.4435 C.ar      1 UNK         0.0000 
     44 O44        -1.5537    2.0100    1.7777 O.co2     1 UNK         0.0000 
     45 C45        -3.4568    2.4113    2.1280 C.ar      1 UNK         0.0000 
     46 O46        -2.6662    3.2778    1.4221 O.co2     1 UNK         0.0000 
     47 C47        -4.8021    2.3351    2.4876 C.ar      1 UNK         0.0000 
     48 C48        -5.1811    1.1947    3.2440 C.ar      1 UNK         0.0000 
     49 C49        -4.1953    0.2399    3.6351 C.ar      1 UNK         0.0000 
     50 H50         4.2732    4.8820    0.9809 H         1 UNK         0.0000 
     51 H51         3.0120    7.0023    1.0925 H         1 UNK         0.0000 
     52 H52         0.5328    7.0104    0.7126 H         1 UNK         0.0000 
     53 H53         1.8111    1.0408    1.0268 H         1 UNK         0.0000 
     54 H54         4.4971    0.1365    1.5015 H         1 UNK         0.0000 
     55 H55         4.0798   -0.2448   -0.2084 H         1 UNK         0.0000 
     56 H56         2.5830   -1.1279    2.3414 H         1 UNK         0.0000 
     57 H57         3.7397   -2.1244    1.3878 H         1 UNK         0.0000 
     58 H58         2.3077   -2.0224   -0.5906 H         1 UNK         0.0000 
     59 H59         1.0760   -1.0548    0.3077 H         1 UNK         0.0000 
     60 H60         0.2561   -4.2431   -3.8607 H         1 UNK         0.0000 
     61 H61        -1.1861   -5.3271   -3.8324 H         1 UNK         0.0000 
     62 H62         0.1421   -5.5682   -2.6328 H         1 UNK         0.0000 
     63 H63        -4.3579    2.7211   -3.6306 H         1 UNK         0.0000 
     64 H64        -4.4067    0.6972   -5.1015 H         1 UNK         0.0000 
     65 H65        -3.2128   -1.3522   -4.4100 H         1 UNK         0.0000 
     66 H66         1.6453   -4.9198    1.7482 H         1 UNK         0.0000 
     67 H67         2.4428   -3.5591    2.5068 H         1 UNK         0.0000 
     68 H68         0.4220   -4.6262    3.7917 H         1 UNK         0.0000 
     69 H69        -0.6469   -3.8071    2.6013 H         1 UNK         0.0000 
     70 H70         1.4667   -2.6552    4.5135 H         1 UNK         0.0000 
     71 H71         0.7100   -1.6577    3.2597 H         1 UNK         0.0000 
     72 H72        -0.2124   -1.4718    5.6571 H         1 UNK         0.0000 
     73 H73        -0.8891   -3.1184    5.4733 H         1 UNK         0.0000 
     74 H74        -2.6936   -2.0213    4.4308 H         1 UNK         0.0000 
     75 H75        -5.5174    3.0887    2.1864 H         1 UNK         0.0000 
     76 H76        -6.2131    1.0628    3.5413 H         1 UNK         0.0000 
     77 H77        -4.4854   -0.6015    4.2490 H         1 UNK         0.0000 
@<TRIPOS>BOND
     1    1    6 nc   
     2    1    8 nc   
     3    1   29 nc   
     4    1   31 nc   
     5    1   44 nc   
     6    1   46 nc   
     7    2    3 ar   
     8    2   50 1    
     9    2    9 ar   
    10    3   51 1    
    11    3    4 ar   
    12    4   52 1    
    13    4    5 ar   
    14    5    6 1    
    15    5    7 ar   
    16    7    9 ar   
    17    7    8 1    
    18    9   10 1    
    19   10   12 am   BACKBONE|DICT|INTERRES
    20   10   11 2    
    21   12   13 1    
    22   12   53 1    
    23   13   14 1    
    24   13   54 1    
    25   13   55 1    
    26   14   57 1    
    27   14   56 1    
    28   14   15 1    
    29   15   16 1    
    30   15   58 1    
    31   15   59 1    
    32   16   35 1    
    33   16   17 am   BACKBONE|DICT|INTERRES
    34   17   18 2    
    35   17   19 1    
    36   19   20 1    
    37   19   21 1    
    38   19   24 1    
    39   21   22 2    
    40   22   23 1    
    41   22   27 1    
    42   23   24 1    
    43   24   25 1    
    44   24   26 1    
    45   26   62 1    
    46   26   60 1    
    47   26   61 1    
    48   27   28 ar   
    49   27   34 ar   
    50   28   29 1    
    51   28   30 ar   
    52   30   31 1    
    53   30   32 ar   
    54   32   33 ar   
    55   32   63 1    
    56   33   34 ar   
    57   33   64 1    
    58   34   65 1    
    59   35   67 1    
    60   35   36 1    
    61   35   66 1    
    62   36   68 1    
    63   36   37 1    
    64   36   69 1    
    65   37   70 1    
    66   37   38 1    
    67   37   71 1    
    68   38   73 1    
    69   38   72 1    
    70   38   39 1    
    71   39   74 1    
    72   39   40 am   BACKBONE|DICT|INTERRES
    73   40   41 2    
    74   40   42 1    
    75   42   49 ar   
    76   42   43 ar   
    77   43   44 1    
    78   43   45 ar   
    79   45   47 ar   
    80   45   46 1    
    81   47   48 ar   
    82   47   75 1    
    83   48   76 1    
    84   48   49 ar   
    85   49   77 1    
@<TRIPOS>SUBSTRUCTURE
     1 UNK         1 GROUP             0       ****    0 ROOT    
@<TRIPOS>MOLECULE
026_r1_c1
80   87    1
SMALL
USER_CHARGES


@<TRIPOS>ATOM
      1 Fe1        -1.5304   -3.1456    0.1162 Fe        1 UNK         0.0000 
      2 C2          2.4684   -4.6673    3.4509 C.ar      1 UNK         0.0000 
      3 C3          1.7751   -5.8922    3.4326 C.ar      1 UNK         0.0000 
      4 C4          0.6724   -6.0530    2.5890 C.ar      1 UNK         0.0000 
      5 C5          0.2991   -4.9618    1.8103 C.ar      1 UNK         0.0000 
      6 O6         -0.6998   -4.8519    0.9421 O.co2     1 UNK         0.0000 
      7 C7          0.9071   -3.8177    1.8239 C.ar      1 UNK         0.0000 
      8 O8          0.1694   -3.0717    0.9927 O.co2     1 UNK         0.0000 
      9 C9          2.0653   -3.5749    2.6287 C.ar      1 UNK         0.0000 
     10 C10         2.9151   -2.3265    2.6835 C.2       1 UNK         0.0000 
     11 O11         3.7850   -2.2629    3.5434 O.2       1 UNK         0.0000 
     12 N12         2.8133   -1.3014    1.7924 N.am      1 UNK         0.0000 
     13 C13         3.7263   -0.1703    1.8091 C.3       1 UNK         0.0000 
     14 C14         3.3628    0.8451    0.7140 C.3       1 UNK         0.0000 
     15 C15         2.0777    1.6242    1.0755 C.3       1 UNK         0.0000 
     16 N16         1.5857    2.5719    0.0571 N.am      1 UNK         0.0000 
     17 C17         0.6166    3.5049    0.3898 C.2       1 UNK         0.0000 
     18 O18         0.2295    4.2850   -0.4687 O.2       1 UNK         0.0000 
     19 C19         0.0409    3.6533    1.8235 C.3       1 UNK         0.0000 
     20 H20         0.9280    3.7892    2.4772 H         1 UNK         0.0000 
     21 C21        -0.8360    4.9199    2.0507 C.3       1 UNK         0.0000 
     22 H22        -1.1162    4.9370    3.1275 H         1 UNK         0.0000 
     23 C23        -0.0960    6.2500    1.8155 C.3       1 UNK         0.0000 
     24 O24        -2.0378    4.8501    1.3200 O.3       1 UNK         0.0000 
     25 N25        -0.7146    2.5023    2.3388 N.am      1 UNK         0.0000 
     26 C26        -1.2246    1.4606    1.6134 C.2       1 UNK         0.0000 
     27 O27        -1.0689    1.4457    0.4080 O.2       1 UNK         0.0000 
     28 C28        -1.9975    0.3338    2.2474 C.ar      1 UNK         0.0000 
     29 C29        -2.3514   -0.8262    1.5154 C.ar      1 UNK         0.0000 
     30 O30        -2.0613   -1.1774    0.2570 O.co2     1 UNK         0.0000 
     31 C31        -3.0436   -1.8263    2.0320 C.ar      1 UNK         0.0000 
     32 O32        -3.2045   -2.7756    1.0923 O.co2     1 UNK         0.0000 
     33 C33        -3.4750   -1.8334    3.3545 C.ar      1 UNK         0.0000 
     34 C34        -3.1476   -0.7264    4.1509 C.ar      1 UNK         0.0000 
     35 C35        -2.4161    0.3515    3.6067 C.ar      1 UNK         0.0000 
     36 C36         2.1572    2.5776   -1.3028 C.3       1 UNK         0.0000 
     37 C37         1.4593    1.5842   -2.2616 C.3       1 UNK         0.0000 
     38 C38         0.0794    2.0942   -2.7058 C.3       1 UNK         0.0000 
     39 C39        -0.5989    1.2486   -3.7981 C.3       1 UNK         0.0000 
     40 N40        -1.0644   -0.0521   -3.3341 N.am      1 UNK         0.0000 
     41 C41        -1.8557   -0.8288   -4.1346 C.2       1 UNK         0.0000 
     42 O42        -2.1280   -0.4241   -5.2583 O.2       1 UNK         0.0000 
     43 C43        -2.4939   -2.1162   -3.6884 C.ar      1 UNK         0.0000 
     44 C44        -2.1906   -2.8673   -2.5220 C.ar      1 UNK         0.0000 
     45 O45        -1.3064   -2.8388   -1.5167 O.co2     1 UNK         0.0000 
     46 C46        -2.7700   -3.8825   -2.1983 C.ar      1 UNK         0.0000 
     47 O47        -2.0796   -4.1580   -1.0701 O.co2     1 UNK         0.0000 
     48 C48        -3.8098   -4.4902   -2.8956 C.ar      1 UNK         0.0000 
     49 C49        -4.2097   -3.8494   -4.0809 C.ar      1 UNK         0.0000 
     50 C50        -3.5501   -2.6618   -4.4816 C.ar      1 UNK         0.0000 
     51 H51         3.3288   -4.5890    4.1034 H         1 UNK         0.0000 
     52 H52         2.1006   -6.7109    4.0613 H         1 UNK         0.0000 
     53 H53         0.1277   -6.9872    2.5488 H         1 UNK         0.0000 
     54 H54         2.1395   -1.3315    1.0326 H         1 UNK         0.0000 
     55 H55         3.7195    0.3331    2.8012 H         1 UNK         0.0000 
     56 H56         4.7514   -0.5547    1.6156 H         1 UNK         0.0000 
     57 H57         3.2655    0.2971   -0.2478 H         1 UNK         0.0000 
     58 H58         4.1937    1.5789    0.6295 H         1 UNK         0.0000 
     59 H59         1.2756    0.9030    1.3139 H         1 UNK         0.0000 
     60 H60         2.3407    2.1792    1.9997 H         1 UNK         0.0000 
     61 H61         0.8047    6.3032    2.4629 H         1 UNK         0.0000 
     62 H62         0.2189    6.3788    0.7615 H         1 UNK         0.0000 
     63 H63        -0.7652    7.0971    2.0767 H         1 UNK         0.0000 
     64 H64        -1.8708    5.1741    0.3985 H         1 UNK         0.0000 
     65 H65        -0.8852    2.5305    3.3509 H         1 UNK         0.0000 
     66 H66        -4.0305   -2.6696    3.7585 H         1 UNK         0.0000 
     67 H67        -3.4578   -0.7002    5.1876 H         1 UNK         0.0000 
     68 H68        -2.2027    1.1767    4.2663 H         1 UNK         0.0000 
     69 H69         2.1501    3.5974   -1.7468 H         1 UNK         0.0000 
     70 H70         3.2409    2.3613   -1.2664 H         1 UNK         0.0000 
     71 H71         1.4008    0.5719   -1.8089 H         1 UNK         0.0000 
     72 H72         2.0857    1.5192   -3.1782 H         1 UNK         0.0000 
     73 H73         0.2299    3.1074   -3.1401 H         1 UNK         0.0000 
     74 H74        -0.6111    2.1965   -1.8499 H         1 UNK         0.0000 
     75 H75        -1.4899    1.8321   -4.1218 H         1 UNK         0.0000 
     76 H76         0.0750    1.1297   -4.6744 H         1 UNK         0.0000 
     77 H77        -0.8574   -0.3310   -2.3739 H         1 UNK         0.0000 
     78 H78        -4.2788   -5.4004   -2.5474 H         1 UNK         0.0000 
     79 H79        -5.0142   -4.2583   -4.6779 H         1 UNK         0.0000 
     80 H80        -3.8769   -2.1750   -5.3920 H         1 UNK         0.0000 
@<TRIPOS>BOND
     1    1    6 nc   
     2    1    8 nc   
     3    1   30 nc   
     4    1   32 nc   
     5    1   45 nc   
     6    1   47 nc   
     7    2   51 1    
     8    2    3 ar   
     9    2    9 ar   
    10    3   52 1    
    11    3    4 ar   
    12    4    5 ar   
    13    4   53 1    
    14    5    7 ar   
    15    5    6 1    
    16    7    9 ar   
    17    7    8 1    
    18    9   10 1    
    19   10   11 2    
    20   10   12 am   BACKBONE|DICT|INTERRES
    21   12   13 1    
    22   12   54 1    
    23   13   55 1    
    24   13   14 1    
    25   13   56 1    
    26   14   15 1    
    27   14   57 1    
    28   14   58 1    
    29   15   59 1    
    30   15   60 1    
    31   15   16 1    
    32   16   17 am   BACKBONE|DICT|INTERRES
    33   16   36 1    
    34   17   19 1    
    35   17   18 2    
    36   19   21 1    
    37   19   25 1    
    38   19   20 1    
    39   21   22 1    
    40   21   23 1    
    41   21   24 1    
    42   23   63 1    
    43   23   61 1    
    44   23   62 1    
    45   24   64 1    
    46   25   65 1    
    47   25   26 am   BACKBONE|DICT|INTERRES
    48   26   28 1    
    49   26   27 2    
    50   28   35 ar   
    51   28   29 ar   
    52   29   31 ar   
    53   29   30 1    
    54   31   33 ar   
    55   31   32 1    
    56   33   66 1    
    57   33   34 ar   
    58   34   67 1    
    59   34   35 ar   
    60   35   68 1    
    61   36   70 1    
    62   36   37 1    
    63   36   69 1    
    64   37   71 1    
    65   37   38 1    
    66   37   72 1    
    67   38   74 1    
    68   38   39 1    
    69   38   73 1    
    70   39   40 1    
    71   39   75 1    
    72   39   76 1    
    73   40   77 1    
    74   40   41 am   BACKBONE|DICT|INTERRES
    75   41   43 1    
    76   41   42 2    
    77   43   44 ar   
    78   43   50 ar   
    79   44   46 ar   
    80   44   45 1    
    81   46   47 1    
    82   46   48 ar   
    83   48   78 1    
    84   48   49 ar   
    85   49   50 ar   
    86   49   79 1    
    87   50   80 1    
@<TRIPOS>SUBSTRUCTURE
     1 UNK         1 GROUP             0       ****    0 ROOT    
@<TRIPOS>MOLECULE
026_r2_c1
80   87    1
SMALL
USER_CHARGES


@<TRIPOS>ATOM
      1 Fe1        -1.9312   -2.9698    0.4627 Fe        1 UNK         0.0000 
      2 C2          2.3993   -5.6549   -1.3338 C.ar      1 UNK         0.0000 
      3 C3          1.5159   -6.7497   -1.3053 C.ar      1 UNK         0.0000 
      4 C4          0.2430   -6.5940   -0.7500 C.ar      1 UNK         0.0000 
      5 C5         -0.0897   -5.3295   -0.2742 C.ar      1 UNK         0.0000 
      6 O6         -1.1944   -4.9042    0.2905 O.co2     1 UNK         0.0000 
      7 C7          0.6820   -4.2998   -0.2986 C.ar      1 UNK         0.0000 
      8 O8         -0.0959   -3.3014    0.1947 O.co2     1 UNK         0.0000 
      9 C9          2.0158   -4.3906   -0.8046 C.ar      1 UNK         0.0000 
     10 C10         3.0486   -3.3135   -0.8121 C.2       1 UNK         0.0000 
     11 O11         3.9439   -3.3734   -1.6459 O.2       1 UNK         0.0000 
     12 N12         3.0833   -2.3408    0.1401 N.am      1 UNK         0.0000 
     13 C13         4.1142   -1.3021    0.1787 C.3       1 UNK         0.0000 
     14 C14         3.4747    0.0839    0.0752 C.3       1 UNK         0.0000 
     15 C15         2.7202    0.4746    1.3651 C.3       1 UNK         0.0000 
     16 N16         1.7200    1.5563    1.2780 N.am      1 UNK         0.0000 
     17 C17         1.5537    2.3317    0.1446 C.2       1 UNK         0.0000 
     18 O18         2.4290    2.3656   -0.7082 O.2       1 UNK         0.0000 
     19 C19         0.2510    3.0355   -0.2506 C.3       1 UNK         0.0000 
     20 H20         0.5311    3.5501   -1.1985 H         1 UNK         0.0000 
     21 C21        -0.3233    4.2207    0.5851 C.3       1 UNK         0.0000 
     22 H22         0.5226    4.9193    0.7888 H         1 UNK         0.0000 
     23 C23        -1.3787    4.9820   -0.2307 C.3       1 UNK         0.0000 
     24 O24        -0.9239    3.8165    1.7821 O.3       1 UNK         0.0000 
     25 N25        -0.7256    1.9715   -0.5380 N.am      1 UNK         0.0000 
     26 C26        -1.1399    1.7105   -1.8094 C.2       1 UNK         0.0000 
     27 O27        -0.8054    2.4740   -2.7073 O.2       1 UNK         0.0000 
     28 C28        -1.9677    0.5174   -2.1962 C.ar      1 UNK         0.0000 
     29 C29        -2.2696   -0.6482   -1.4132 C.ar      1 UNK         0.0000 
     30 O30        -1.9369   -1.0468   -0.1562 O.co2     1 UNK         0.0000 
     31 C31        -2.9864   -1.6278   -1.9320 C.ar      1 UNK         0.0000 
     32 O32        -3.1049   -2.5855   -1.0367 O.co2     1 UNK         0.0000 
     33 C33        -3.5038   -1.6337   -3.2229 C.ar      1 UNK         0.0000 
     34 C34        -3.2422   -0.5350   -4.0315 C.ar      1 UNK         0.0000 
     35 C35        -2.4805    0.5264   -3.5286 C.ar      1 UNK         0.0000 
     36 C36         0.8563    1.7809    2.4412 C.3       1 UNK         0.0000 
     37 C37         0.9584    0.7512    3.5746 C.3       1 UNK         0.0000 
     38 C38         0.1431    1.1970    4.7969 C.3       1 UNK         0.0000 
     39 C39        -0.2511   -0.0274    5.6314 C.3       1 UNK         0.0000 
     40 N40        -1.2038   -0.8237    4.8724 N.am      1 UNK         0.0000 
     41 C41        -2.4685   -0.3760    4.6226 C.2       1 UNK         0.0000 
     42 O42        -2.8543    0.6605    5.1488 O.2       1 UNK         0.0000 
     43 C43        -3.4383   -1.1365    3.7951 C.ar      1 UNK         0.0000 
     44 C44        -3.1167   -2.0643    2.7708 C.ar      1 UNK         0.0000 
     45 O45        -1.9983   -2.5262    2.1359 O.co2     1 UNK         0.0000 
     46 C46        -4.0033   -2.7020    2.1542 C.ar      1 UNK         0.0000 
     47 O47        -3.2565   -3.4546    1.3480 O.co2     1 UNK         0.0000 
     48 C48        -5.3768   -2.5846    2.3370 C.ar      1 UNK         0.0000 
     49 C49        -5.7972   -1.6476    3.2897 C.ar      1 UNK         0.0000 
     50 C50        -4.8308   -0.9216    4.0195 C.ar      1 UNK         0.0000 
     51 H51         3.3898   -5.8098   -1.7440 H         1 UNK         0.0000 
     52 H52         1.8253   -7.7105   -1.6955 H         1 UNK         0.0000 
     53 H53        -0.4557   -7.4187   -0.6990 H         1 UNK         0.0000 
     54 H54         2.3847   -2.3723    0.8910 H         1 UNK         0.0000 
     55 H55         4.7168   -1.3843    1.1090 H         1 UNK         0.0000 
     56 H56         4.8119   -1.4074   -0.6791 H         1 UNK         0.0000 
     57 H57         4.2607    0.8476   -0.1131 H         1 UNK         0.0000 
     58 H58         2.7878    0.0213   -0.7975 H         1 UNK         0.0000 
     59 H59         2.1445   -0.4221    1.6365 H         1 UNK         0.0000 
     60 H60         3.4541    0.6756    2.1753 H         1 UNK         0.0000 
     61 H61        -2.2386    4.3204   -0.4703 H         1 UNK         0.0000 
     62 H62        -0.9433    5.3638   -1.1790 H         1 UNK         0.0000 
     63 H63        -1.7517    5.8522    0.3498 H         1 UNK         0.0000 
     64 H64        -0.8784    4.5875    2.4064 H         1 UNK         0.0000 
     65 H65        -1.0405    1.3484    0.2152 H         1 UNK         0.0000 
     66 H66        -4.0815   -2.4713   -3.5921 H         1 UNK         0.0000 
     67 H67        -3.6187   -0.5048   -5.0459 H         1 UNK         0.0000 
     68 H68        -2.2969    1.3565   -4.1991 H         1 UNK         0.0000 
     69 H69         1.0904    2.7901    2.8460 H         1 UNK         0.0000 
     70 H70        -0.1997    1.7041    2.1446 H         1 UNK         0.0000 
     71 H71         1.9964    0.5666    3.9238 H         1 UNK         0.0000 
     72 H72         0.5471   -0.1928    3.1548 H         1 UNK         0.0000 
     73 H73        -0.7815    1.7240    4.4843 H         1 UNK         0.0000 
     74 H74         0.7458    1.9228    5.3845 H         1 UNK         0.0000 
     75 H75        -0.7096    0.2751    6.5977 H         1 UNK         0.0000 
     76 H76         0.6622   -0.6212    5.8558 H         1 UNK         0.0000 
     77 H77        -0.9064   -1.7520    4.5477 H         1 UNK         0.0000 
     78 H78        -6.0808   -3.1685    1.7587 H         1 UNK         0.0000 
     79 H79        -6.8527   -1.4896    3.4692 H         1 UNK         0.0000 
     80 H80        -5.1740   -0.2144    4.7642 H         1 UNK         0.0000 
@<TRIPOS>BOND
     1    1    6 nc   
     2    1    8 nc   
     3    1   30 nc   
     4    1   32 nc   
     5    1   45 nc   
     6    1   47 nc   
     7    2    3 ar   
     8    2    9 ar   
     9    2   51 1    
    10    3    4 ar   
    11    3   52 1    
    12    4   53 1    
    13    4    5 ar   
    14    5    6 1    
    15    5    7 ar   
    16    7    8 1    
    17    7    9 ar   
    18    9   10 1    
    19   10   12 am   BACKBONE|DICT|INTERRES
    20   10   11 2    
    21   12   13 1    
    22   12   54 1    
    23   13   55 1    
    24   13   14 1    
    25   13   56 1    
    26   14   15 1    
    27   14   57 1    
    28   14   58 1    
    29   15   59 1    
    30   15   60 1    
    31   15   16 1    
    32   16   36 1    
    33   16   17 am   BACKBONE|DICT|INTERRES
    34   17   18 2    
    35   17   19 1    
    36   19   20 1    
    37   19   21 1    
    38   19   25 1    
    39   21   22 1    
    40   21   24 1    
    41   21   23 1    
    42   23   63 1    
    43   23   61 1    
    44   23   62 1    
    45   24   64 1    
    46   25   65 1    
    47   25   26 am   BACKBONE|DICT|INTERRES
    48   26   27 2    
    49   26   28 1    
    50   28   29 ar   
    51   28   35 ar   
    52   29   30 1    
    53   29   31 ar   
    54   31   32 1    
    55   31   33 ar   
    56   33   34 ar   
    57   33   66 1    
    58   34   35 ar   
    59   34   67 1    
    60   35   68 1    
    61   36   69 1    
    62   36   37 1    
    63   36   70 1    
    64   37   71 1    
    65   37   38 1    
    66   37   72 1    
    67   38   74 1    
    68   38   39 1    
    69   38   73 1    
    70   39   76 1    
    71   39   75 1    
    72   39   40 1    
    73   40   41 am   BACKBONE|DICT|INTERRES
    74   40   77 1    
    75   41   42 2    
    76   41   43 1    
    77   43   50 ar   
    78   43   44 ar   
    79   44   45 1    
    80   44   46 ar   
    81   46   48 ar   
    82   46   47 1    
    83   48   49 ar   
    84   48   78 1    
    85   49   79 1    
    86   49   50 ar   
    87   50   80 1    
@<TRIPOS>SUBSTRUCTURE
     1 UNK         1 GROUP             0       ****    0 ROOT    
@<TRIPOS>MOLECULE
026_r3_c1
80   87    1
SMALL
USER_CHARGES


@<TRIPOS>ATOM
      1 Fe1         1.8267   -3.0358   -0.5264 Fe        1 UNK         0.0000 
      2 C2         -1.8104   -3.8710    2.9560 C.ar      1 UNK         0.0000 
      3 C3         -0.9500   -4.9279    3.3186 C.ar      1 UNK         0.0000 
      4 C4          0.0926   -5.3079    2.4614 C.ar      1 UNK         0.0000 
      5 C5          0.2273   -4.6112    1.2633 C.ar      1 UNK         0.0000 
      6 O6          1.1473   -4.7618    0.3081 O.co2     1 UNK         0.0000 
      7 C7         -0.5733   -3.6319    0.9099 C.ar      1 UNK         0.0000 
      8 O8         -0.1411   -3.2039   -0.2818 O.co2     1 UNK         0.0000 
      9 C9         -1.6384   -3.1839    1.7256 C.ar      1 UNK         0.0000 
     10 C10        -2.5403   -2.0369    1.3887 C.2       1 UNK         0.0000 
     11 O11        -3.4344   -1.7416    2.1698 O.2       1 UNK         0.0000 
     12 N12        -2.3673   -1.2958    0.2600 N.am      1 UNK         0.0000 
     13 C13        -3.1426   -0.1187   -0.0702 C.3       1 UNK         0.0000 
     14 C14        -2.9472    0.9910    0.9803 C.3       1 UNK         0.0000 
     15 C15        -3.1994    2.3862    0.3827 C.3       1 UNK         0.0000 
     16 N16        -2.0454    2.8381   -0.4111 N.am      1 UNK         0.0000 
     17 C17        -0.8839    3.3002    0.1890 C.2       1 UNK         0.0000 
     18 O18         0.0312    3.6941   -0.5191 O.2       1 UNK         0.0000 
     19 C19        -0.6396    3.3061    1.7177 C.3       1 UNK         0.0000 
     20 H20        -1.5882    3.0845    2.2352 H         1 UNK         0.0000 
     21 C21        -0.2310    4.7127    2.2387 C.3       1 UNK         0.0000 
     22 H22        -0.9868    5.4409    1.8585 H         1 UNK         0.0000 
     23 C23         1.1727    5.1665    1.8044 C.3       1 UNK         0.0000 
     24 O24        -0.2770    4.6984    3.6436 O.3       1 UNK         0.0000 
     25 N25         0.3100    2.2779    2.1940 N.am      1 UNK         0.0000 
     26 C26         0.9201    1.3100    1.4326 C.2       1 UNK         0.0000 
     27 O27         0.7136    1.2784    0.2364 O.2       1 UNK         0.0000 
     28 C28         1.8153    0.2418    2.0119 C.ar      1 UNK         0.0000 
     29 C29         2.3261   -0.8131    1.2079 C.ar      1 UNK         0.0000 
     30 O30         2.1343   -1.0769   -0.0874 O.co2     1 UNK         0.0000 
     31 C31         3.1053   -1.7762    1.6749 C.ar      1 UNK         0.0000 
     32 O32         3.4080   -2.6326    0.6799 O.co2     1 UNK         0.0000 
     33 C33         3.4891   -1.8343    3.0117 C.ar      1 UNK         0.0000 
     34 C34         3.0197   -0.8290    3.8721 C.ar      1 UNK         0.0000 
     35 C35         2.1894    0.2027    3.3813 C.ar      1 UNK         0.0000 
     36 C36        -2.1371    2.7567   -1.8771 C.3       1 UNK         0.0000 
     37 C37        -1.0385    1.8298   -2.4790 C.3       1 UNK         0.0000 
     38 C38        -1.3375    1.4751   -3.9382 C.3       1 UNK         0.0000 
     39 C39        -0.2101    0.6880   -4.6289 C.3       1 UNK         0.0000 
     40 N40         0.0899   -0.6068   -4.0155 N.am      1 UNK         0.0000 
     41 C41        -0.0454   -1.7889   -4.6933 C.2       1 UNK         0.0000 
     42 O42        -0.5716   -1.7818   -5.7983 O.2       1 UNK         0.0000 
     43 C43         0.4602   -3.1121   -4.1830 C.ar      1 UNK         0.0000 
     44 C44         1.3054   -3.3256   -3.0602 C.ar      1 UNK         0.0000 
     45 O45         1.9177   -2.6072   -2.0786 O.co2     1 UNK         0.0000 
     46 C46         1.7435   -4.3809   -2.7423 C.ar      1 UNK         0.0000 
     47 O47         2.4938   -3.9322   -1.6985 O.co2     1 UNK         0.0000 
     48 C48         1.4911   -5.6037   -3.3522 C.ar      1 UNK         0.0000 
     49 C49         0.6244   -5.5612   -4.4604 C.ar      1 UNK         0.0000 
     50 C50         0.1152   -4.3080   -4.8886 C.ar      1 UNK         0.0000 
     51 H51        -2.5971   -3.5884    3.6441 H         1 UNK         0.0000 
     52 H52        -1.0863   -5.4381    4.2632 H         1 UNK         0.0000 
     53 H53         0.7735   -6.1061    2.7263 H         1 UNK         0.0000 
     54 H54        -1.6312   -1.5299   -0.4115 H         1 UNK         0.0000 
     55 H55        -2.7890    0.2273   -1.0517 H         1 UNK         0.0000 
     56 H56        -4.2208   -0.3546   -0.2006 H         1 UNK         0.0000 
     57 H57        -1.9202    0.9597    1.3893 H         1 UNK         0.0000 
     58 H58        -3.6491    0.7909    1.8169 H         1 UNK         0.0000 
     59 H59        -3.4228    3.1464    1.1593 H         1 UNK         0.0000 
     60 H60        -4.1353    2.3363   -0.2162 H         1 UNK         0.0000 
     61 H61         1.2625    5.2801    0.7085 H         1 UNK         0.0000 
     62 H62         1.3913    6.1617    2.2459 H         1 UNK         0.0000 
     63 H63         1.9425    4.4499    2.1613 H         1 UNK         0.0000 
     64 H64        -0.4322    5.6332    3.9407 H         1 UNK         0.0000 
     65 H65         0.4625    2.2696    3.2093 H         1 UNK         0.0000 
     66 H66         4.1201   -2.6335    3.3780 H         1 UNK         0.0000 
     67 H67         3.2935   -0.8482    4.9190 H         1 UNK         0.0000 
     68 H68         1.8588    0.9464    4.0883 H         1 UNK         0.0000 
     69 H69        -3.1269    2.3418   -2.1661 H         1 UNK         0.0000 
     70 H70        -2.0638    3.7686   -2.3317 H         1 UNK         0.0000 
     71 H71        -0.0495    2.3262   -2.4296 H         1 UNK         0.0000 
     72 H72        -0.9607    0.8850   -1.9106 H         1 UNK         0.0000 
     73 H73        -2.2843    0.8953   -3.9961 H         1 UNK         0.0000 
     74 H74        -1.4720    2.4217   -4.5066 H         1 UNK         0.0000 
     75 H75         0.7176    1.3002   -4.6237 H         1 UNK         0.0000 
     76 H76        -0.5079    0.5718   -5.6928 H         1 UNK         0.0000 
     77 H77         0.4667   -0.5978   -3.0627 H         1 UNK         0.0000 
     78 H78         1.9245   -6.5264   -2.9895 H         1 UNK         0.0000 
     79 H79         0.3632   -6.4711   -4.9847 H         1 UNK         0.0000 
     80 H80        -0.5340   -4.2811   -5.7541 H         1 UNK         0.0000 
@<TRIPOS>BOND
     1    1    6 nc   
     2    1    8 nc   
     3    1   30 nc   
     4    1   32 nc   
     5    1   45 nc   
     6    1   47 nc   
     7    2    3 ar   
     8    2   51 1    
     9    2    9 ar   
    10    3   52 1    
    11    3    4 ar   
    12    4   53 1    
    13    4    5 ar   
    14    5    6 1    
    15    5    7 ar   
    16    7    9 ar   
    17    7    8 1    
    18    9   10 1    
    19   10   11 2    
    20   10   12 am   BACKBONE|DICT|INTERRES
    21   12   13 1    
    22   12   54 1    
    23   13   14 1    
    24   13   55 1    
    25   13   56 1    
    26   14   57 1    
    27   14   58 1    
    28   14   15 1    
    29   15   59 1    
    30   15   16 1    
    31   15   60 1    
    32   16   17 am   BACKBONE|DICT|INTERRES
    33   16   36 1    
    34   17   19 1    
    35   17   18 2    
    36   19   25 1    
    37   19   20 1    
    38   19   21 1    
    39   21   22 1    
    40   21   24 1    
    41   21   23 1    
    42   23   63 1    
    43   23   62 1    
    44   23   61 1    
    45   24   64 1    
    46   25   65 1    
    47   25   26 am   BACKBONE|DICT|INTERRES
    48   26   28 1    
    49   26   27 2    
    50   28   35 ar   
    51   28   29 ar   
    52   29   31 ar   
    53   29   30 1    
    54   31   33 ar   
    55   31   32 1    
    56   33   66 1    
    57   33   34 ar   
    58   34   67 1    
    59   34   35 ar   
    60   35   68 1    
    61   36   37 1    
    62   36   69 1    
    63   36   70 1    
    64   37   71 1    
    65   37   72 1    
    66   37   38 1    
    67   38   39 1    
    68   38   73 1    
    69   38   74 1    
    70   39   75 1    
    71   39   40 1    
    72   39   76 1    
    73   40   77 1    
    74   40   41 am   BACKBONE|DICT|INTERRES
    75   41   43 1    
    76   41   42 2    
    77   43   44 ar   
    78   43   50 ar   
    79   44   46 ar   
    80   44   45 1    
    81   46   47 1    
    82   46   48 ar   
    83   48   78 1    
    84   48   49 ar   
    85   49   50 ar   
    86   49   79 1    
    87   50   80 1    
@<TRIPOS>SUBSTRUCTURE
     1 UNK         1 GROUP             0       ****    0 ROOT    
@<TRIPOS>MOLECULE
026_r4_c1
80   87    1
SMALL
USER_CHARGES


@<TRIPOS>ATOM
      1 Fe1        -1.9144    2.8858   -0.0628 Fe        1 UNK         0.0000 
      2 C2          2.6144    5.3525    0.3615 C.ar      1 UNK         0.0000 
      3 C3          1.8067    6.5014    0.2625 C.ar      1 UNK         0.0000 
      4 C4          0.4712    6.3834   -0.1279 C.ar      1 UNK         0.0000 
      5 C5         -0.0006    5.1065   -0.3987 C.ar      1 UNK         0.0000 
      6 O6         -1.2157    4.7241   -0.7899 O.co2     1 UNK         0.0000 
      7 C7          0.7240    4.0215   -0.3129 C.ar      1 UNK         0.0000 
      8 O8         -0.1463    3.0577   -0.6621 O.co2     1 UNK         0.0000 
      9 C9          2.1080    4.0487    0.0720 C.ar      1 UNK         0.0000 
     10 C10         3.0899    2.8956    0.2318 C.2       1 UNK         0.0000 
     11 O11         4.2215    3.1706    0.6119 O.2       1 UNK         0.0000 
     12 N12         2.8021    1.5820   -0.0015 N.am      1 UNK         0.0000 
     13 C13         3.8005    0.5295    0.2114 C.3       1 UNK         0.0000 
     14 C14         3.2337   -0.8839   -0.0496 C.3       1 UNK         0.0000 
     15 C15         2.1028   -1.1887    0.9594 C.3       1 UNK         0.0000 
     16 N16         1.3799   -2.4549    0.8352 N.am      1 UNK         0.0000 
     17 C17         0.8197   -2.8305   -0.3765 C.2       1 UNK         0.0000 
     18 O18         1.1002   -2.2073   -1.3896 O.2       1 UNK         0.0000 
     19 C19        -0.2814   -3.8944   -0.5572 C.3       1 UNK         0.0000 
     20 H20        -0.6896   -4.2589    0.4046 H         1 UNK         0.0000 
     21 C21         0.2500   -5.1257   -1.3283 C.3       1 UNK         0.0000 
     22 H22         1.0910   -5.5487   -0.7293 H         1 UNK         0.0000 
     23 C23        -0.8288   -6.2098   -1.4658 C.3       1 UNK         0.0000 
     24 O24         0.7112   -4.7488   -2.6001 O.3       1 UNK         0.0000 
     25 N25        -1.3629   -3.2220   -1.2812 N.am      1 UNK         0.0000 
     26 C26        -1.9202   -2.0925   -0.7572 C.2       1 UNK         0.0000 
     27 O27        -1.6582   -1.7905    0.3952 O.2       1 UNK         0.0000 
     28 C28        -2.7203   -1.1435   -1.5778 C.ar      1 UNK         0.0000 
     29 C29        -2.8070    0.2154   -1.2032 C.ar      1 UNK         0.0000 
     30 O30        -2.2496    0.8579   -0.1762 O.co2     1 UNK         0.0000 
     31 C31        -3.4562    1.1122   -1.9098 C.ar      1 UNK         0.0000 
     32 O32        -3.3303    2.3058   -1.3180 O.co2     1 UNK         0.0000 
     33 C33        -4.1235    0.7914   -3.0914 C.ar      1 UNK         0.0000 
     34 C34        -4.0719   -0.5427   -3.5317 C.ar      1 UNK         0.0000 
     35 C35        -3.3655   -1.5100   -2.7833 C.ar      1 UNK         0.0000 
     36 C36         1.1954   -3.2419    2.0588 C.3       1 UNK         0.0000 
     37 C37         0.1769   -2.6583    3.0873 C.3       1 UNK         0.0000 
     38 C38         0.6375   -1.6673    4.1938 C.3       1 UNK         0.0000 
     39 C39         0.8335   -0.1522    3.9283 C.3       1 UNK         0.0000 
     40 N40        -0.3333    0.5481    3.4137 N.am      1 UNK         0.0000 
     41 C41        -1.4949    0.6941    4.1155 C.2       1 UNK         0.0000 
     42 O42        -1.6225    0.1419    5.1992 O.2       1 UNK         0.0000 
     43 C43        -2.6178    1.5463    3.6216 C.ar      1 UNK         0.0000 
     44 C44        -2.5450    2.3904    2.4974 C.ar      1 UNK         0.0000 
     45 O45        -1.6188    2.7050    1.5734 O.co2     1 UNK         0.0000 
     46 C46        -3.4908    3.0987    2.0890 C.ar      1 UNK         0.0000 
     47 O47        -2.9259    3.6644    0.9962 O.co2     1 UNK         0.0000 
     48 C48        -4.7439    3.1734    2.6876 C.ar      1 UNK         0.0000 
     49 C49        -4.9325    2.3735    3.8313 C.ar      1 UNK         0.0000 
     50 C50        -3.8695    1.5602    4.3023 C.ar      1 UNK         0.0000 
     51 H51         3.6418    5.4991    0.6694 H         1 UNK         0.0000 
     52 H52         2.2198    7.4760    0.4881 H         1 UNK         0.0000 
     53 H53        -0.1692    7.2514   -0.2142 H         1 UNK         0.0000 
     54 H54         1.8782    1.3087   -0.3257 H         1 UNK         0.0000 
     55 H55         4.1709    0.5730    1.2596 H         1 UNK         0.0000 
     56 H56         4.6614    0.7030   -0.4706 H         1 UNK         0.0000 
     57 H57         2.9071   -0.8830   -1.1042 H         1 UNK         0.0000 
     58 H58         4.0361   -1.6443    0.0658 H         1 UNK         0.0000 
     59 H59         2.6033   -1.1684    1.9424 H         1 UNK         0.0000 
     60 H60         1.3374   -0.3903    0.9001 H         1 UNK         0.0000 
     61 H61        -0.4069   -7.0991   -1.9800 H         1 UNK         0.0000 
     62 H62        -1.6949   -5.8442   -2.0559 H         1 UNK         0.0000 
     63 H63        -1.1871   -6.5258   -0.4627 H         1 UNK         0.0000 
     64 H64         1.3392   -5.4574   -2.8997 H         1 UNK         0.0000 
     65 H65        -1.5740   -3.5046   -2.2482 H         1 UNK         0.0000 
     66 H66        -4.6490    1.5474   -3.6606 H         1 UNK         0.0000 
     67 H67        -4.5670   -0.8261   -4.4516 H         1 UNK         0.0000 
     68 H68        -3.3380   -2.5256   -3.1511 H         1 UNK         0.0000 
     69 H69         2.1720   -3.4604    2.5422 H         1 UNK         0.0000 
     70 H70         0.8287   -4.2496    1.7937 H         1 UNK         0.0000 
     71 H71        -0.0882   -3.5564    3.6908 H         1 UNK         0.0000 
     72 H72        -0.7691   -2.3380    2.6123 H         1 UNK         0.0000 
     73 H73         1.5712   -2.0677    4.6444 H         1 UNK         0.0000 
     74 H74        -0.1326   -1.7337    4.9893 H         1 UNK         0.0000 
     75 H75         1.6786    0.0460    3.2661 H         1 UNK         0.0000 
     76 H76         1.1259    0.3241    4.8897 H         1 UNK         0.0000 
     77 H77        -0.2238    1.0120    2.5035 H         1 UNK         0.0000 
     78 H78        -5.5312    3.7999    2.2888 H         1 UNK         0.0000 
     79 H79        -5.8858    2.3758    4.3436 H         1 UNK         0.0000 
     80 H80        -4.0315    0.9474    5.1797 H         1 UNK         0.0000 
@<TRIPOS>BOND
     1    1    6 nc   
     2    1    8 nc   
     3    1   30 nc   
     4    1   32 nc   
     5    1   45 nc   
     6    1   47 nc   
     7    2   51 1    
     8    2    3 ar   
     9    2    9 ar   
    10    3   52 1    
    11    3    4 ar   
    12    4    5 ar   
    13    4   53 1    
    14    5    7 ar   
    15    5    6 1    
    16    7    9 ar   
    17    7    8 1    
    18    9   10 1    
    19   10   11 2    
    20   10   12 am   BACKBONE|DICT|INTERRES
    21   12   13 1    
    22   12   54 1    
    23   13   55 1    
    24   13   14 1    
    25   13   56 1    
    26   14   58 1    
    27   14   15 1    
    28   14   57 1    
    29   15   59 1    
    30   15   16 1    
    31   15   60 1    
    32   16   36 1    
    33   16   17 am   BACKBONE|DICT|INTERRES
    34   17   18 2    
    35   17   19 1    
    36   19   20 1    
    37   19   21 1    
    38   19   25 1    
    39   21   22 1    
    40   21   23 1    
    41   21   24 1    
    42   23   63 1    
    43   23   61 1    
    44   23   62 1    
    45   24   64 1    
    46   25   26 am   BACKBONE|DICT|INTERRES
    47   25   65 1    
    48   26   27 2    
    49   26   28 1    
    50   28   29 ar   
    51   28   35 ar   
    52   29   30 1    
    53   29   31 ar   
    54   31   32 1    
    55   31   33 ar   
    56   33   34 ar   
    57   33   66 1    
    58   34   35 ar   
    59   34   67 1    
    60   35   68 1    
    61   36   69 1    
    62   36   37 1    
    63   36   70 1    
    64   37   71 1    
    65   37   38 1    
    66   37   72 1    
    67   38   73 1    
    68   38   74 1    
    69   38   39 1    
    70   39   76 1    
    71   39   40 1    
    72   39   75 1    
    73   40   41 am   BACKBONE|DICT|INTERRES
    74   40   77 1    
    75   41   42 2    
    76   41   43 1    
    77   43   50 ar   
    78   43   44 ar   
    79   44   45 1    
    80   44   46 ar   
    81   46   48 ar   
    82   46   47 1    
    83   48   49 ar   
    84   48   78 1    
    85   49   50 ar   
    86   49   79 1    
    87   50   80 1    
@<TRIPOS>SUBSTRUCTURE
     1 UNK         1 GROUP             0       ****    0 ROOT    
@<TRIPOS>MOLECULE
027_c1
121   127    1
SMALL
USER_CHARGES


@<TRIPOS>ATOM
      1 Fe1        -8.8824    3.9267   -1.2298 Fe        1 UNK         0.0000 
      2 C2          9.4461   -0.3071   -1.1799 C.ar      1 UNK         0.0000 
      3 C3         10.7950   -0.0072   -1.0538 C.ar      1 UNK         0.0000 
      4 C4         11.6878   -1.0188   -0.7420 C.ar      1 UNK         0.0000 
      5 O5         12.8718   -0.7464   -0.6300 O.2       1 UNK         0.0000 
      6 N6         11.2344   -2.3101   -0.5746 N.pl3     1 UNK         0.0000 
      7 C7         12.1722   -3.4036   -0.2544 C.3       1 UNK         0.0000 
      8 C8          9.8822   -2.5910   -0.7096 C.ar      1 UNK         0.0000 
      9 O9          9.5137   -3.7469   -0.5896 O.2       1 UNK         0.0000 
     10 N10         8.9683   -1.5774   -1.0003 N.pl3     1 UNK         0.0000 
     11 C11         7.4891   -1.7342   -1.1749 C.3       1 UNK         0.0000 
     12 H12         7.2471   -1.4419   -2.2218 H         1 UNK         0.0000 
     13 C13         6.8603   -3.1167   -0.9260 C.3       1 UNK         0.0000 
     14 H14         7.1952   -3.8389   -1.7068 H         1 UNK         0.0000 
     15 O15         7.1870   -3.5917    0.3599 O.3       1 UNK         0.0000 
     16 C16         5.3523   -2.8301   -0.9899 C.3       1 UNK         0.0000 
     17 H17         5.0868   -2.4242   -1.9943 H         1 UNK         0.0000 
     18 O18         4.5944   -3.9802   -0.7202 O.3       1 UNK         0.0000 
     19 S19         6.5329   -0.5836   -0.1019 S.3       1 UNK         0.0000 
     20 C20         5.1156   -1.7471    0.0776 C.3       1 UNK         0.0000 
     21 H21         5.2354   -2.2291    1.0737 H         1 UNK         0.0000 
     22 C22         3.6919   -1.0792    0.0193 C.3       1 UNK         0.0000 
     23 H23         3.5848   -0.5117   -0.9305 H         1 UNK         0.0000 
     24 O24         2.7043   -2.0807    0.0160 O.3       1 UNK         0.0000 
     25 C25         3.4395   -0.1360    1.2361 C.3       1 UNK         0.0000 
     26 H26         3.6926   -0.7374    2.1378 H         1 UNK         0.0000 
     27 C27         4.3422    1.0736    1.2326 C.2       1 UNK         0.0000 
     28 O28         5.2187    1.2671    2.2379 O.3       1 UNK         0.0000 
     29 O29         4.2775    1.8908    0.3260 O.2       1 UNK         0.0000 
     30 N30         2.0556    0.3469    1.3476 N.am      1 UNK         0.0000 
     31 C31         1.2395   -0.0479    2.3742 C.2       1 UNK         0.0000 
     32 O32         1.5514   -1.0127    3.0591 O.2       1 UNK         0.0000 
     33 C33         0.0157    0.7522    2.8219 C.3       1 UNK         0.0000 
     34 H34        -0.3998    0.2102    3.7008 H         1 UNK         0.0000 
     35 C35         0.4751    2.1046    3.3885 C.3       1 UNK         0.0000 
     36 O36         1.0337    2.9091    2.3874 O.3       1 UNK         0.0000 
     37 N37        -1.0374    0.9806    1.8256 N.am      1 UNK         0.0000 
     38 C38        -2.3543    0.6846    2.0945 C.2       1 UNK         0.0000 
     39 O39        -2.6408    0.0750    3.1166 O.2       1 UNK         0.0000 
     40 C40        -3.5375    1.1307    1.2336 C.3       1 UNK         0.0000 
     41 H41        -4.1603    1.7551    1.8907 H         1 UNK         0.0000 
     42 C42        -3.1737    2.0212   -0.0150 C.3       1 UNK         0.0000 
     43 C43        -4.4798    2.6423   -0.5369 C.3       1 UNK         0.0000 
     44 C44        -4.6659    3.0286   -2.0382 C.3       1 UNK         0.0000 
     45 N45        -6.1127    3.1199   -2.2814 N.am      1 UNK         0.0000 
     46 O46        -6.8806    4.1622   -1.9647 O.co2     1 UNK         0.0000 
     47 C47        -6.8585    2.0861   -2.0071 C.2       1 UNK         0.0000 
     48 O48        -7.8191    2.4474   -1.3367 O.co2     1 UNK         0.0000 
     49 C49        -6.4440    0.6482   -2.2860 C.3       1 UNK         0.0000 
     50 N50        -4.2380   -0.0758    0.7689 N.am      1 UNK         0.0000 
     51 C51        -5.5056   -0.6059    0.9806 C.2       1 UNK         0.0000 
     52 O52        -5.7279   -1.6644    0.4068 O.2       1 UNK         0.0000 
     53 C53        -6.7156   -0.1403    1.8454 C.3       1 UNK         0.0000 
     54 H54        -6.8215   -0.9722    2.5774 H         1 UNK         0.0000 
     55 C55        -6.6519    1.1344    2.7415 C.3       1 UNK         0.0000 
     56 C56        -7.0395    2.4961    2.0933 C.3       1 UNK         0.0000 
     57 C57        -8.5625    2.8590    2.1911 C.3       1 UNK         0.0000 
     58 N58        -9.0082    3.9750    1.3385 N.am      1 UNK         0.0000 
     59 O59       -10.0500    3.8581    0.4799 O.co2     1 UNK         0.0000 
     60 C60        -8.3568    5.0795    0.9823 C.2       1 UNK         0.0000 
     61 O61        -8.8581    5.5248   -0.0557 O.co2     1 UNK         0.0000 
     62 C62        -7.0492    5.5979    1.5051 C.3       1 UNK         0.0000 
     63 N63        -7.8925   -0.0834    0.9749 N.am      1 UNK         0.0000 
     64 C64        -9.0059   -0.8827    1.0707 C.2       1 UNK         0.0000 
     65 O65        -9.0834   -1.7030    1.9737 O.2       1 UNK         0.0000 
     66 C66       -10.1992   -0.7795    0.0908 C.3       1 UNK         0.0000 
     67 H67       -10.3663   -1.7951   -0.3334 H         1 UNK         0.0000 
     68 N68       -11.3886   -0.3817    0.8390 N.3       1 UNK         0.0000 
     69 C69        -9.9389    0.1752   -1.1054 C.3       1 UNK         0.0000 
     70 C70       -11.0326    0.3549   -2.1804 C.3       1 UNK         0.0000 
     71 C71       -10.5770    1.2325   -3.3991 C.3       1 UNK         0.0000 
     72 N72       -10.2123    2.5949   -3.0275 N.am      1 UNK         0.0000 
     73 O73       -10.0664    3.1175   -1.8114 O.co2     1 UNK         0.0000 
     74 C74        -9.8469    3.6600   -3.6278 C.2       1 UNK         0.0000 
     75 O75        -9.6204    4.4498   -2.6901 O.co2     1 UNK         0.0000 
     76 C76        -9.6394    3.8901   -5.0891 C.3       1 UNK         0.0000 
     77 H77         8.7768    0.5081   -1.4280 H         1 UNK         0.0000 
     78 H78        11.1395    1.0095   -1.1977 H         1 UNK         0.0000 
     79 H79        13.2244   -3.0586   -0.1735 H         1 UNK         0.0000 
     80 H80        11.8949   -3.8641    0.7171 H         1 UNK         0.0000 
     81 H81        12.1341   -4.1769   -1.0501 H         1 UNK         0.0000 
     82 H82         6.9704   -4.5604    0.3718 H         1 UNK         0.0000 
     83 H83         4.7322   -4.5947   -1.4875 H         1 UNK         0.0000 
     84 H84         2.7985   -2.6035    0.8558 H         1 UNK         0.0000 
     85 H85         1.7539    1.1151    0.7277 H         1 UNK         0.0000 
     86 H86         1.2265    1.9193    4.1916 H         1 UNK         0.0000 
     87 H87        -0.4048    2.6225    3.8301 H         1 UNK         0.0000 
     88 H88         1.3916    3.7108    2.8498 H         1 UNK         0.0000 
     89 H89        -0.7872    1.4940    0.9696 H         1 UNK         0.0000 
     90 H90        -2.4802    2.8559    0.2206 H         1 UNK         0.0000 
     91 H91        -2.7034    1.3652   -0.7788 H         1 UNK         0.0000 
     92 H92        -5.1925    1.8395   -0.3590 H         1 UNK         0.0000 
     93 H93        -4.7998    3.4725    0.1221 H         1 UNK         0.0000 
     94 H94        -4.2463    2.2189   -2.6742 H         1 UNK         0.0000 
     95 H95        -4.1417    3.9711   -2.3015 H         1 UNK         0.0000 
     96 H96        -7.0840   -0.1023   -1.8212 H         1 UNK         0.0000 
     97 H97        -6.4509    0.4895   -3.3844 H         1 UNK         0.0000 
     98 H98        -5.4261    0.4016   -1.9316 H         1 UNK         0.0000 
     99 H99        -3.6423   -0.6463    0.1451 H         1 UNK         0.0000 
    100 H100       -7.3459    1.0091    3.6014 H         1 UNK         0.0000 
    101 H101       -5.6549    1.1504    3.2178 H         1 UNK         0.0000 
    102 H102       -6.5097    3.2720    2.6778 H         1 UNK         0.0000 
    103 H103       -6.6856    2.5143    1.0552 H         1 UNK         0.0000 
    104 H104       -9.1554    1.9736    1.8829 H         1 UNK         0.0000 
    105 H105       -8.8192    3.0593    3.2505 H         1 UNK         0.0000 
    106 H106       -6.2308    4.8936    1.2712 H         1 UNK         0.0000 
    107 H107       -7.1069    5.7895    2.5944 H         1 UNK         0.0000 
    108 H108       -6.7837    6.5388    0.9788 H         1 UNK         0.0000 
    109 H109       -7.8374    0.6136    0.2338 H         1 UNK         0.0000 
    110 H110      -11.2814    0.6014    1.1865 H         1 UNK         0.0000 
    111 H111      -12.2374   -0.4426    0.2351 H         1 UNK         0.0000 
    112 H112       -9.0865   -0.2406   -1.6452 H         1 UNK         0.0000 
    113 H113       -9.7195    1.1530   -0.6642 H         1 UNK         0.0000 
    114 H114      -11.9378    0.8054   -1.7230 H         1 UNK         0.0000 
    115 H115      -11.3067   -0.6486   -2.5715 H         1 UNK         0.0000 
    116 H116      -11.4248    1.2763   -4.1145 H         1 UNK         0.0000 
    117 H117       -9.7130    0.7541   -3.9097 H         1 UNK         0.0000 
    118 H118       -9.8768    2.9703   -5.6634 H         1 UNK         0.0000 
    119 H119       -8.5752    4.1554   -5.2654 H         1 UNK         0.0000 
    120 H120      -10.2871    4.7201   -5.4358 H         1 UNK         0.0000 
    121 H121        5.7111    2.0764    2.0824 H         1 UNK         0.0000 
@<TRIPOS>BOND
     1    1   46 nc   
     2    1   48 nc   
     3    1   59 nc   
     4    1   61 nc   
     5    1   73 nc   
     6    1   75 nc   
     7    2    3 ar   
     8    2   10 ar   
     9    2   77 1    
    10    3    4 ar   
    11    3   78 1    
    12    4    5 2    
    13    4    6 ar   
    14    6    7 1    
    15    6    8 ar   
    16    7   79 1    
    17    7   80 1    
    18    7   81 1    
    19    8    9 2    
    20    8   10 ar   
    21   10   11 1    
    22   11   12 1    
    23   11   13 1    
    24   11   19 1    
    25   13   14 1    
    26   13   15 1    
    27   13   16 1    
    28   15   82 1    
    29   16   17 1    
    30   16   18 1    
    31   16   20 1    
    32   18   83 1    
    33   19   20 1    
    34   20   21 1    
    35   20   22 1    
    36   22   23 1    
    37   22   25 1    
    38   22   24 1    
    39   24   84 1    
    40   25   30 1    
    41   25   26 1    
    42   25   27 1    
    43   27   28 1    
    44   27   29 2    
    45   28  121 1    
    46   30   31 am   BACKBONE|DICT|INTERRES
    47   30   85 1    
    48   31   33 1    
    49   31   32 2    
    50   33   35 1    
    51   33   34 1    
    52   33   37 1    
    53   35   87 1    
    54   35   86 1    
    55   35   36 1    
    56   36   88 1    
    57   37   38 am   BACKBONE|DICT|INTERRES
    58   37   89 1    
    59   38   39 2    
    60   38   40 1    
    61   40   41 1    
    62   40   42 1    
    63   40   50 1    
    64   42   90 1    
    65   42   43 1    
    66   42   91 1    
    67   43   92 1    
    68   43   93 1    
    69   43   44 1    
    70   44   45 1    
    71   44   94 1    
    72   44   95 1    
    73   45   47 am   BACKBONE|DICT|INTERRES
    74   45   46 1    
    75   47   49 1    
    76   47   48 2    
    77   49   98 1    
    78   49   96 1    
    79   49   97 1    
    80   50   51 am   BACKBONE|DICT|INTERRES
    81   50   99 1    
    82   51   53 1    
    83   51   52 2    
    84   53   54 1    
    85   53   55 1    
    86   53   63 1    
    87   55  101 1    
    88   55  100 1    
    89   55   56 1    
    90   56   57 1    
    91   56  102 1    
    92   56  103 1    
    93   57  105 1    
    94   57   58 1    
    95   57  104 1    
    96   58   59 1    
    97   58   60 am   BACKBONE|DICT|INTERRES
    98   60   62 1    
    99   60   61 2    
   100   62  107 1    
   101   62  106 1    
   102   62  108 1    
   103   63   64 am   BACKBONE|DICT|INTERRES
   104   63  109 1    
   105   64   65 2    
   106   64   66 1    
   107   66   67 1    
   108   66   68 1    
   109   66   69 1    
   110   68  110 1    
   111   68  111 1    
   112   69  113 1    
   113   69   70 1    
   114   69  112 1    
   115   70  114 1    
   116   70   71 1    
   117   70  115 1    
   118   71   72 1    
   119   71  116 1    
   120   71  117 1    
   121   72   73 1    
   122   72   74 am   BACKBONE|DICT|INTERRES
   123   74   76 1    
   124   74   75 2    
   125   76  118 1    
   126   76  119 1    
   127   76  120 1    
@<TRIPOS>SUBSTRUCTURE
     1 UNK         1 GROUP             0       ****    0 ROOT    
@<TRIPOS>MOLECULE
028_r1_c1
126   132    1
SMALL
USER_CHARGES


@<TRIPOS>ATOM
      1 Fe1         7.3174   -6.7998   -0.8111 Fe        1 UNK         0.0000 
      2 O2        -11.0572    9.7407   -1.5483 O.2       1 UNK         0.0000 
      3 C3        -11.7826    8.8245   -1.1987 C.2       1 UNK         0.0000 
      4 N4        -13.1222    9.0055   -1.2266 N.am      1 UNK         0.0000 
      5 N5        -11.2624    7.5610   -0.7639 N.am      1 UNK         0.0000 
      6 C6        -10.0408    7.1342   -0.6205 C.ar      1 UNK         0.0000 
      7 C7         -8.9211    7.9378   -0.8930 C.ar      1 UNK         0.0000 
      8 C8         -7.6447    7.4281   -0.7146 C.ar      1 UNK         0.0000 
      9 N9         -9.8287    5.8435   -0.1816 N.pl3     1 UNK         0.0000 
     10 C10       -10.9597    4.9447    0.1313 C.3       1 UNK         0.0000 
     11 C11        -8.5376    5.3515   -0.0172 C.ar      1 UNK         0.0000 
     12 O12        -8.3735    4.2032    0.3637 O.2       1 UNK         0.0000 
     13 N13        -7.4388    6.1519   -0.2803 N.pl3     1 UNK         0.0000 
     14 C14        -6.0314    5.7021   -0.1089 C.3       1 UNK         0.0000 
     15 H15        -5.3384    6.5217   -0.4105 H         1 UNK         0.0000 
     16 C16        -5.6819    5.2856    1.3175 C.3       1 UNK         0.0000 
     17 H17        -6.3162    4.4470    1.6807 H         1 UNK         0.0000 
     18 O18        -5.7585    6.3728    2.2014 O.3       1 UNK         0.0000 
     19 C19        -4.2399    4.7925    1.1842 C.3       1 UNK         0.0000 
     20 H20        -3.6184    5.6653    0.8652 H         1 UNK         0.0000 
     21 O21        -3.7576    4.2879    2.3980 O.3       1 UNK         0.0000 
     22 S22        -5.5769    4.2718   -1.1409 S.3       1 UNK         0.0000 
     23 C23        -4.2059    3.7670    0.0080 C.3       1 UNK         0.0000 
     24 H24        -3.2512    3.8894   -0.5440 H         1 UNK         0.0000 
     25 C25        -4.3533    2.2470    0.3558 C.3       1 UNK         0.0000 
     26 H26        -4.7135    1.7505   -0.5727 H         1 UNK         0.0000 
     27 O27        -5.3673    2.0401    1.3086 O.3       1 UNK         0.0000 
     28 C28        -3.0414    1.4113    0.6717 C.3       1 UNK         0.0000 
     29 H29        -3.4329    0.4079    0.9127 H         1 UNK         0.0000 
     30 C30        -2.2447    1.9353    1.8371 C.2       1 UNK         0.0000 
     31 O31        -1.5479    3.0828    1.7221 O.2       1 UNK         0.0000 
     32 O32        -2.1648    1.2848    2.8670 O.3       1 UNK         0.0000 
     33 N33        -2.1771    1.3095   -0.5139 N.am      1 UNK         0.0000 
     34 C34        -1.0096    0.5894   -0.6786 C.2       1 UNK         0.0000 
     35 O35        -0.4461    0.7027   -1.7582 O.2       1 UNK         0.0000 
     36 C36        -0.3427   -0.3304    0.3793 C.3       1 UNK         0.0000 
     37 H37        -0.2023    0.2727    1.3001 H         1 UNK         0.0000 
     38 C38        -1.2340   -1.5577    0.6764 C.3       1 UNK         0.0000 
     39 O39        -1.4242   -2.3034   -0.4948 O.3       1 UNK         0.0000 
     40 N40         1.0000   -0.7936   -0.0501 N.am      1 UNK         0.0000 
     41 C41         1.8606   -1.4867    0.7659 C.2       1 UNK         0.0000 
     42 O42         1.5353   -1.7452    1.9167 O.2       1 UNK         0.0000 
     43 C43         3.2605   -1.9231    0.2999 C.3       1 UNK         0.0000 
     44 H44         3.4187   -1.6046   -0.7525 H         1 UNK         0.0000 
     45 C45         3.3577   -3.4920    0.3587 C.3       1 UNK         0.0000 
     46 C46         2.5157   -4.2263   -0.7248 C.3       1 UNK         0.0000 
     47 C47         2.9855   -5.6888   -1.0620 C.3       1 UNK         0.0000 
     48 N48         4.4316   -5.8194   -1.2881 N.am      1 UNK         0.0000 
     49 O49         5.1839   -6.8831   -0.9652 O.co2     1 UNK         0.0000 
     50 C50         5.2517   -5.0475   -1.9320 C.2       1 UNK         0.0000 
     51 O51         6.3847   -5.3952   -1.6636 O.co2     1 UNK         0.0000 
     52 C52         4.8969   -3.9236   -2.8736 C.3       1 UNK         0.0000 
     53 N53         4.2819   -1.2201    1.1194 N.am      1 UNK         0.0000 
     54 C54         5.6668   -1.2756    1.0449 C.2       1 UNK         0.0000 
     55 O55         6.3143   -0.6028    1.8346 O.2       1 UNK         0.0000 
     56 C56         6.4364   -2.2322    0.1420 C.3       1 UNK         0.0000 
     57 H57         5.7628   -2.4616   -0.6929 H         1 UNK         0.0000 
     58 C58         6.7623   -3.4989    0.9836 C.3       1 UNK         0.0000 
     59 C59         8.0681   -3.4252    1.8014 C.3       1 UNK         0.0000 
     60 C60         8.3895   -4.7375    2.5207 C.3       1 UNK         0.0000 
     61 N61         8.1967   -5.9035    1.6585 N.am      1 UNK         0.0000 
     62 O62         8.7320   -6.0187    0.4224 O.co2     1 UNK         0.0000 
     63 C63         7.4063   -6.9408    1.9174 C.2       1 UNK         0.0000 
     64 O64         7.3943   -7.7292    0.9980 O.co2     1 UNK         0.0000 
     65 C65         6.5444   -7.1823    3.1315 C.3       1 UNK         0.0000 
     66 N66         7.7048   -1.7302   -0.4067 N.am      1 UNK         0.0000 
     67 C67         8.3283   -2.3949   -1.4390 C.2       1 UNK         0.0000 
     68 O68         7.6868   -3.1206   -2.1709 O.2       1 UNK         0.0000 
     69 C69         9.8370   -2.3653   -1.6281 C.3       1 UNK         0.0000 
     70 H70        10.2540   -1.7659   -0.7893 H         1 UNK         0.0000 
     71 N71        10.2052   -1.7090   -2.8829 N.3       1 UNK         0.0000 
     72 C72        10.4278   -3.8220   -1.5132 C.3       1 UNK         0.0000 
     73 C73        10.3206   -4.7386   -2.7732 C.3       1 UNK         0.0000 
     74 C74        10.6698   -6.2513   -2.5337 C.3       1 UNK         0.0000 
     75 N75         9.5109   -7.0628   -2.1536 N.am      1 UNK         0.0000 
     76 O76         8.2079   -6.7634   -2.0445 O.co2     1 UNK         0.0000 
     77 C77         9.2342   -8.1901   -1.7948 C.2       1 UNK         0.0000 
     78 O78         8.0015   -8.0090   -1.6139 O.co2     1 UNK         0.0000 
     79 C79        10.0929   -9.3787   -1.5106 C.3       1 UNK         0.0000 
     80 H80       -13.7584    8.2483   -0.9380 H         1 UNK         0.0000 
     81 H81       -13.5258    9.9031   -1.5356 H         1 UNK         0.0000 
     82 H82        -8.9772    8.9541   -1.2363 H         1 UNK         0.0000 
     83 H83        -6.8094    8.0840   -0.9311 H         1 UNK         0.0000 
     84 H84       -11.9546    5.4116   -0.0224 H         1 UNK         0.0000 
     85 H85       -10.9151    4.0430   -0.5153 H         1 UNK         0.0000 
     86 H86       -10.9067    4.6330    1.1965 H         1 UNK         0.0000 
     87 H87        -6.7238    6.5320    2.3711 H         1 UNK         0.0000 
     88 H88        -3.5568    5.0691    2.9768 H         1 UNK         0.0000 
     89 H89        -4.9652    2.1260    2.2099 H         1 UNK         0.0000 
     90 H90        -2.4759    1.8587   -1.3352 H         1 UNK         0.0000 
     91 H91        -2.2093   -1.2558    1.0873 H         1 UNK         0.0000 
     92 H92        -0.7689   -2.2021    1.4491 H         1 UNK         0.0000 
     93 H93        -2.0515   -3.0355   -0.2587 H         1 UNK         0.0000 
     94 H94         1.3408   -0.5689   -0.9948 H         1 UNK         0.0000 
     95 H95         4.3725   -3.7625    0.1259 H         1 UNK         0.0000 
     96 H96         3.1557   -3.8969    1.3731 H         1 UNK         0.0000 
     97 H97         2.5704   -3.6574   -1.6668 H         1 UNK         0.0000 
     98 H98         1.4387   -4.2077   -0.4532 H         1 UNK         0.0000 
     99 H99         2.4317   -6.0414   -1.9577 H         1 UNK         0.0000 
    100 H100        2.7149   -6.3581   -0.2176 H         1 UNK         0.0000 
    101 H101        4.4459   -3.0552   -2.3712 H         1 UNK         0.0000 
    102 H102        5.7832   -3.5592   -3.4201 H         1 UNK         0.0000 
    103 H103        4.2009   -4.3121   -3.6457 H         1 UNK         0.0000 
    104 H104        3.9147   -0.5691    1.8328 H         1 UNK         0.0000 
    105 H105        6.9246   -4.2993    0.2643 H         1 UNK         0.0000 
    106 H106        5.9169   -3.7988    1.6390 H         1 UNK         0.0000 
    107 H107        8.0457   -2.5920    2.5359 H         1 UNK         0.0000 
    108 H108        8.9126   -3.2438    1.1112 H         1 UNK         0.0000 
    109 H109        9.4410   -4.6958    2.8755 H         1 UNK         0.0000 
    110 H110        7.7496   -4.7824    3.4155 H         1 UNK         0.0000 
    111 H111        5.4860   -7.2589    2.8016 H         1 UNK         0.0000 
    112 H112        6.8373   -8.1440    3.5997 H         1 UNK         0.0000 
    113 H113        6.5869   -6.4063    3.9121 H         1 UNK         0.0000 
    114 H114        8.2909   -1.1473    0.2101 H         1 UNK         0.0000 
    115 H115       11.2469   -1.6904   -2.9738 H         1 UNK         0.0000 
    116 H116        9.7997   -2.2181   -3.7010 H         1 UNK         0.0000 
    117 H117       11.5115   -3.7510   -1.2741 H         1 UNK         0.0000 
    118 H118        9.9513   -4.2957   -0.6446 H         1 UNK         0.0000 
    119 H119       11.0686   -4.3246   -3.4835 H         1 UNK         0.0000 
    120 H120        9.3440   -4.6559   -3.2820 H         1 UNK         0.0000 
    121 H121       11.0499   -6.6819   -3.4833 H         1 UNK         0.0000 
    122 H122       11.4801   -6.3260   -1.7763 H         1 UNK         0.0000 
    123 H123        9.7772  -10.2333   -2.1413 H         1 UNK         0.0000 
    124 H124       11.1585   -9.1395   -1.7104 H         1 UNK         0.0000 
    125 H125        9.9842   -9.6519   -0.4391 H         1 UNK         0.0000 
    126 H126       -1.6246    1.7582    3.5039 H         1 UNK         0.0000 
@<TRIPOS>BOND
     1    1   49 nc   
     2    1   51 nc   
     3    1   62 nc   
     4    1   64 nc   
     5    1   76 nc   
     6    1   78 nc   
     7    2    3 2    
     8    3    5 am   BACKBONE|DICT|INTERRES
     9    3    4 am   BACKBONE|DICT|INTERRES
    10    4   80 1    
    11    4   81 1    
    12    5    6 2    
    13    6    9 ar   
    14    6    7 ar   
    15    7    8 ar   
    16    7   82 1    
    17    8   13 ar   
    18    8   83 1    
    19    9   11 ar   
    20    9   10 1    
    21   10   86 1    
    22   10   84 1    
    23   10   85 1    
    24   11   12 2    
    25   11   13 ar   
    26   13   14 1    
    27   14   15 1    
    28   14   16 1    
    29   14   22 1    
    30   16   17 1    
    31   16   18 1    
    32   16   19 1    
    33   18   87 1    
    34   19   20 1    
    35   19   21 1    
    36   19   23 1    
    37   21   88 1    
    38   22   23 1    
    39   23   24 1    
    40   23   25 1    
    41   25   26 1    
    42   25   28 1    
    43   25   27 1    
    44   27   89 1    
    45   28   29 1    
    46   28   30 1    
    47   28   33 1    
    48   30   32 1    
    49   30   31 2    
    50   32  126 1    
    51   33   34 am   BACKBONE|DICT|INTERRES
    52   33   90 1    
    53   34   36 1    
    54   34   35 2    
    55   36   38 1    
    56   36   37 1    
    57   36   40 1    
    58   38   91 1    
    59   38   92 1    
    60   38   39 1    
    61   39   93 1    
    62   40   41 am   BACKBONE|DICT|INTERRES
    63   40   94 1    
    64   41   42 2    
    65   41   43 1    
    66   43   44 1    
    67   43   45 1    
    68   43   53 1    
    69   45   96 1    
    70   45   46 1    
    71   45   95 1    
    72   46   98 1    
    73   46   47 1    
    74   46   97 1    
    75   47  100 1    
    76   47   48 1    
    77   47   99 1    
    78   48   49 1    
    79   48   50 am   BACKBONE|DICT|INTERRES
    80   50   52 1    
    81   50   51 2    
    82   52  101 1    
    83   52  102 1    
    84   52  103 1    
    85   53  104 1    
    86   53   54 am   BACKBONE|DICT|INTERRES
    87   54   55 2    
    88   54   56 1    
    89   56   57 1    
    90   56   58 1    
    91   56   66 1    
    92   58  106 1    
    93   58   59 1    
    94   58  105 1    
    95   59   60 1    
    96   59  107 1    
    97   59  108 1    
    98   60  109 1    
    99   60  110 1    
   100   60   61 1    
   101   61   63 am   BACKBONE|DICT|INTERRES
   102   61   62 1    
   103   63   65 1    
   104   63   64 2    
   105   65  112 1    
   106   65  113 1    
   107   65  111 1    
   108   66  114 1    
   109   66   67 am   BACKBONE|DICT|INTERRES
   110   67   68 2    
   111   67   69 1    
   112   69   72 1    
   113   69   70 1    
   114   69   71 1    
   115   71  115 1    
   116   71  116 1    
   117   72  117 1    
   118   72  118 1    
   119   72   73 1    
   120   73   74 1    
   121   73  119 1    
   122   73  120 1    
   123   74   75 1    
   124   74  122 1    
   125   74  121 1    
   126   75   77 am   BACKBONE|DICT|INTERRES
   127   75   76 1    
   128   77   78 2    
   129   77   79 1    
   130   79  125 1    
   131   79  123 1    
   132   79  124 1    
@<TRIPOS>SUBSTRUCTURE
     1 UNK         1 GROUP             0       ****    0 ROOT    
@<TRIPOS>MOLECULE
029_r1_c1
122   128    1
SMALL
USER_CHARGES


@<TRIPOS>ATOM
      1 Fe1        -0.6246    9.4692   -0.0871 Fe        1 UNK         0.0000 
      2 C2          3.3838  -10.7591    0.0214 C.ar      1 UNK         0.0000 
      3 C3          4.4282  -11.6586   -0.1358 C.ar      1 UNK         0.0000 
      4 C4          4.2124  -12.8569   -0.8091 C.ar      1 UNK         0.0000 
      5 N5          5.2064  -13.6694   -0.9237 N.2       1 UNK         0.0000 
      6 H6          5.1613  -14.5818   -1.3973 H         1 UNK         0.0000 
      7 N7          2.9676  -13.1394   -1.3229 N.pl3     1 UNK         0.0000 
      8 C8          2.7218  -14.4113   -2.0355 C.3       1 UNK         0.0000 
      9 C9          1.9360  -12.2231   -1.1593 C.ar      1 UNK         0.0000 
     10 O10         0.8288  -12.4789   -1.6085 O.2       1 UNK         0.0000 
     11 N11         2.1427  -11.0286   -0.4757 N.pl3     1 UNK         0.0000 
     12 C12         1.0146  -10.0779   -0.2724 C.3       1 UNK         0.0000 
     13 H13         0.1172  -10.4342   -0.8211 H         1 UNK         0.0000 
     14 C14         0.5644   -9.9621    1.2058 C.3       1 UNK         0.0000 
     15 H15        -0.5535   -9.9515    1.2201 H         1 UNK         0.0000 
     16 O16         1.0292  -11.0012    2.0271 O.3       1 UNK         0.0000 
     17 C17         0.9558   -8.5785    1.7282 C.3       1 UNK         0.0000 
     18 H18         0.3970   -8.3232    2.6588 H         1 UNK         0.0000 
     19 O19         2.3328   -8.4811    1.9782 O.3       1 UNK         0.0000 
     20 S20         1.3628   -8.3764   -0.9037 S.3       1 UNK         0.0000 
     21 C21         0.5576   -7.6521    0.5747 C.3       1 UNK         0.0000 
     22 H22        -0.5431   -7.7436    0.4275 H         1 UNK         0.0000 
     23 C23         0.8298   -6.1487    0.8621 C.3       1 UNK         0.0000 
     24 H24         0.2970   -5.9631    1.8273 H         1 UNK         0.0000 
     25 O25         2.2052   -5.8835    0.9999 O.3       1 UNK         0.0000 
     26 C26         0.1713   -5.1831   -0.1726 C.3       1 UNK         0.0000 
     27 H27        -0.8627   -5.5590   -0.3339 H         1 UNK         0.0000 
     28 C28         0.8890   -5.2003   -1.5056 C.2       1 UNK         0.0000 
     29 O29         0.2388   -5.6087   -2.6123 O.2       1 UNK         0.0000 
     30 O30         2.0602   -4.8631   -1.5883 O.3       1 UNK         0.0000 
     31 N31        -0.0024   -3.8500    0.4228 N.am      1 UNK         0.0000 
     32 C32         0.2599   -2.6152   -0.1175 C.2       1 UNK         0.0000 
     33 O33         0.7202   -2.5017   -1.2431 O.2       1 UNK         0.0000 
     34 C34        -0.1059   -1.3683    0.6985 C.3       1 UNK         0.0000 
     35 H35        -1.1780   -1.4922    0.9701 H         1 UNK         0.0000 
     36 C36         0.7864   -1.3447    1.9664 C.3       1 UNK         0.0000 
     37 O37         0.4387   -0.2976    2.8268 O.3       1 UNK         0.0000 
     38 N38         0.0321   -0.1161   -0.0597 N.am      1 UNK         0.0000 
     39 C39        -0.5121    1.0701    0.3653 C.2       1 UNK         0.0000 
     40 O40        -1.1973    1.1043    1.3755 O.2       1 UNK         0.0000 
     41 C41        -0.2444    2.3733   -0.3773 C.3       1 UNK         0.0000 
     42 H42         0.3624    2.1488   -1.2838 H         1 UNK         0.0000 
     43 C43         0.6349    3.2988    0.5216 C.3       1 UNK         0.0000 
     44 C44         0.6444    4.7680    0.0646 C.3       1 UNK         0.0000 
     45 C45         1.4855    5.6718    0.9520 C.3       1 UNK         0.0000 
     46 N46         1.1413    7.0689    0.7390 N.am      1 UNK         0.0000 
     47 O47         0.1134    7.6630    0.1029 O.co2     1 UNK         0.0000 
     48 C48         1.6671    8.1219    1.1626 C.2       1 UNK         0.0000 
     49 O49         0.9547    8.9732    0.6985 O.co2     1 UNK         0.0000 
     50 C50         2.8769    8.3105    2.0229 C.3       1 UNK         0.0000 
     51 N51        -1.4594    3.0601   -0.8508 N.am      1 UNK         0.0000 
     52 C52        -2.3298    3.7519   -0.0498 C.2       1 UNK         0.0000 
     53 O53        -2.2320    3.6685    1.1661 O.2       1 UNK         0.0000 
     54 C54        -3.2926    4.7959   -0.6445 C.3       1 UNK         0.0000 
     55 H55        -4.1157    4.2828   -1.1857 H         1 UNK         0.0000 
     56 C56        -2.5487    5.7599   -1.6441 C.3       1 UNK         0.0000 
     57 C57        -3.4439    6.9047   -2.1672 C.3       1 UNK         0.0000 
     58 C58        -2.7704    7.9193   -3.1296 C.3       1 UNK         0.0000 
     59 N59        -1.8161    8.8381   -2.5063 N.am      1 UNK         0.0000 
     60 O60        -1.9301    9.6636   -1.4579 O.co2     1 UNK         0.0000 
     61 C61        -0.6435    9.2152   -2.7901 C.2       1 UNK         0.0000 
     62 O62        -0.4116   10.0680   -1.9391 O.co2     1 UNK         0.0000 
     63 C63         0.2606    8.7343   -3.8786 C.3       1 UNK         0.0000 
     64 N64        -3.7799    5.6474    0.4334 N.am      1 UNK         0.0000 
     65 C65        -5.0951    5.8769    0.7565 C.2       1 UNK         0.0000 
     66 O66        -5.9765    5.2269    0.2163 O.2       1 UNK         0.0000 
     67 C67        -5.5016    7.0089    1.7258 C.3       1 UNK         0.0000 
     68 H68        -6.2187    7.6535    1.1697 H         1 UNK         0.0000 
     69 N69        -6.1639    6.4654    2.9090 N.3       1 UNK         0.0000 
     70 C70        -4.2939    7.9010    2.0849 C.3       1 UNK         0.0000 
     71 C71        -4.4874    9.2822    2.7469 C.3       1 UNK         0.0000 
     72 C72        -3.1679   10.0199    3.1889 C.3       1 UNK         0.0000 
     73 N73        -2.1648   10.3374    2.1569 N.am      1 UNK         0.0000 
     74 O74        -1.9020    9.8121    0.9517 O.co2     1 UNK         0.0000 
     75 C75        -1.0420   10.8969    2.2185 C.2       1 UNK         0.0000 
     76 O76        -0.5720   10.6353    1.1215 O.co2     1 UNK         0.0000 
     77 C77        -0.3658   11.5870    3.3617 C.3       1 UNK         0.0000 
     78 H78         3.5892   -9.8436    0.5454 H         1 UNK         0.0000 
     79 H79         5.4044  -11.4223    0.2725 H         1 UNK         0.0000 
     80 H80         3.3822  -14.4814   -2.9255 H         1 UNK         0.0000 
     81 H81         2.9165  -15.2692   -1.3564 H         1 UNK         0.0000 
     82 H82         1.6778  -14.5164   -2.3962 H         1 UNK         0.0000 
     83 H83         0.5128  -11.8109    1.7764 H         1 UNK         0.0000 
     84 H84         2.5046   -8.9605    2.8304 H         1 UNK         0.0000 
     85 H85         2.3792   -5.6712    1.9539 H         1 UNK         0.0000 
     86 H86        -0.4669   -3.8530    1.3432 H         1 UNK         0.0000 
     87 H87         1.8481   -1.2296    1.6480 H         1 UNK         0.0000 
     88 H88         0.6820   -2.2994    2.5264 H         1 UNK         0.0000 
     89 H89         1.1022   -0.3119    3.5651 H         1 UNK         0.0000 
     90 H90         0.5600   -0.1181   -0.9445 H         1 UNK         0.0000 
     91 H91         0.2327    3.3060    1.5584 H         1 UNK         0.0000 
     92 H92         1.6654    2.8827    0.5722 H         1 UNK         0.0000 
     93 H93        -0.3712    5.1512    0.1813 H         1 UNK         0.0000 
     94 H94         0.9595    4.8724   -0.9964 H         1 UNK         0.0000 
     95 H95         1.3176    5.4473    2.0277 H         1 UNK         0.0000 
     96 H96         2.5553    5.4882    0.7114 H         1 UNK         0.0000 
     97 H97         3.3280    7.3327    2.2906 H         1 UNK         0.0000 
     98 H98         3.6283    8.9159    1.4747 H         1 UNK         0.0000 
     99 H99         2.5881    8.8414    2.9535 H         1 UNK         0.0000 
    100 H100       -1.5447    3.1683   -1.8709 H         1 UNK         0.0000 
    101 H101       -2.1560    5.1959   -2.5150 H         1 UNK         0.0000 
    102 H102       -1.7055    6.2365   -1.1293 H         1 UNK         0.0000 
    103 H103       -3.8777    7.4831   -1.3260 H         1 UNK         0.0000 
    104 H104       -4.2806    6.4220   -2.7174 H         1 UNK         0.0000 
    105 H105       -3.5934    8.5465   -3.5322 H         1 UNK         0.0000 
    106 H106       -2.3039    7.3890   -3.9878 H         1 UNK         0.0000 
    107 H107       -0.2137    8.8995   -4.8670 H         1 UNK         0.0000 
    108 H108        0.4539    7.6493   -3.7382 H         1 UNK         0.0000 
    109 H109        1.2275    9.2782   -3.8361 H         1 UNK         0.0000 
    110 H110       -3.0300    6.1599    0.9147 H         1 UNK         0.0000 
    111 H111       -6.5078    7.2494    3.5087 H         1 UNK         0.0000 
    112 H112       -5.4881    5.8877    3.4593 H         1 UNK         0.0000 
    113 H113       -3.9736    8.1264    1.0635 H         1 UNK         0.0000 
    114 H114       -3.5676    7.3100    2.6899 H         1 UNK         0.0000 
    115 H115       -5.0778    9.1364    3.6754 H         1 UNK         0.0000 
    116 H116       -5.0716    9.9306    2.0611 H         1 UNK         0.0000 
    117 H117       -2.6698    9.4077    3.9738 H         1 UNK         0.0000 
    118 H118       -3.4767   10.9726    3.6688 H         1 UNK         0.0000 
    119 H119       -0.1288   12.6325    3.0780 H         1 UNK         0.0000 
    120 H120       -1.0132   11.5876    4.2624 H         1 UNK         0.0000 
    121 H121        0.5795   11.0542    3.6025 H         1 UNK         0.0000 
    122 H122        2.3508   -4.9351   -2.5004 H         1 UNK         0.0000 
@<TRIPOS>BOND
     1    1   47 nc   
     2    1   49 nc   
     3    1   60 nc   
     4    1   62 nc   
     5    1   74 nc   
     6    1   76 nc   
     7    2   78 1    
     8    2    3 ar   
     9    2   11 ar   
    10    3   79 1    
    11    3    4 ar   
    12    4    5 2    
    13    4    7 ar   
    14    5    6 1    
    15    7    9 ar   
    16    7    8 1    
    17    8   81 1    
    18    8   80 1    
    19    8   82 1    
    20    9   11 ar   
    21    9   10 2    
    22   11   12 1    
    23   12   13 1    
    24   12   14 1    
    25   12   20 1    
    26   14   15 1    
    27   14   17 1    
    28   14   16 1    
    29   16   83 1    
    30   17   19 1    
    31   17   18 1    
    32   17   21 1    
    33   19   84 1    
    34   20   21 1    
    35   21   22 1    
    36   21   23 1    
    37   23   25 1    
    38   23   24 1    
    39   23   26 1    
    40   25   85 1    
    41   26   27 1    
    42   26   31 1    
    43   26   28 1    
    44   28   29 2    
    45   28   30 1    
    46   30  122 1    
    47   31   86 1    
    48   31   32 am   BACKBONE|DICT|INTERRES
    49   32   34 1    
    50   32   33 2    
    51   34   35 1    
    52   34   36 1    
    53   34   38 1    
    54   36   88 1    
    55   36   37 1    
    56   36   87 1    
    57   37   89 1    
    58   38   39 am   BACKBONE|DICT|INTERRES
    59   38   90 1    
    60   39   40 2    
    61   39   41 1    
    62   41   42 1    
    63   41   43 1    
    64   41   51 1    
    65   43   92 1    
    66   43   91 1    
    67   43   44 1    
    68   44   93 1    
    69   44   45 1    
    70   44   94 1    
    71   45   95 1    
    72   45   46 1    
    73   45   96 1    
    74   46   48 am   BACKBONE|DICT|INTERRES
    75   46   47 1    
    76   48   50 1    
    77   48   49 2    
    78   50   97 1    
    79   50   99 1    
    80   50   98 1    
    81   51   52 am   BACKBONE|DICT|INTERRES
    82   51  100 1    
    83   52   53 2    
    84   52   54 1    
    85   54   55 1    
    86   54   64 1    
    87   54   56 1    
    88   56  102 1    
    89   56   57 1    
    90   56  101 1    
    91   57  103 1    
    92   57   58 1    
    93   57  104 1    
    94   58   59 1    
    95   58  105 1    
    96   58  106 1    
    97   59   60 1    
    98   59   61 am   BACKBONE|DICT|INTERRES
    99   61   63 1    
   100   61   62 2    
   101   63  109 1    
   102   63  108 1    
   103   63  107 1    
   104   64   65 am   BACKBONE|DICT|INTERRES
   105   64  110 1    
   106   65   67 1    
   107   65   66 2    
   108   67   68 1    
   109   67   70 1    
   110   67   69 1    
   111   69  112 1    
   112   69  111 1    
   113   70  114 1    
   114   70   71 1    
   115   70  113 1    
   116   71   72 1    
   117   71  115 1    
   118   71  116 1    
   119   72  118 1    
   120   72  117 1    
   121   72   73 1    
   122   73   75 am   BACKBONE|DICT|INTERRES
   123   73   74 1    
   124   75   77 1    
   125   75   76 2    
   126   77  121 1    
   127   77  120 1    
   128   77  119 1    
@<TRIPOS>SUBSTRUCTURE
     1 UNK         1 GROUP             0       ****    0 ROOT    
@<TRIPOS>MOLECULE
029_r2_c1
124   130    1
SMALL
USER_CHARGES


@<TRIPOS>ATOM
      1 Fe1        -2.1624    9.4664    0.9582 Fe        1 UNK         0.0000 
      2 C2          4.6720   -9.6661    0.0967 C.2       1 UNK         0.0000 
      3 C3          5.1994  -10.7713   -0.5513 C.2       1 UNK         0.0000 
      4 C4          4.6390  -12.0248   -0.3420 C.3       1 UNK         0.0000 
      5 N5          5.2010  -13.1417   -1.0257 N.3       1 UNK         0.0000 
      6 N6          3.5764  -12.1574    0.5168 N.am      1 UNK         0.0000 
      7 C7          2.9965  -13.4940    0.7559 C.3       1 UNK         0.0000 
      8 C8          3.0573  -11.0376    1.1603 C.2       1 UNK         0.0000 
      9 O9          2.1400  -11.1865    1.9469 O.2       1 UNK         0.0000 
     10 N10         3.5950   -9.7679    0.9341 N.am      1 UNK         0.0000 
     11 C11         3.1272   -8.4844    1.5547 C.3       1 UNK         0.0000 
     12 H12         3.9411   -8.1152    2.2173 H         1 UNK         0.0000 
     13 C13         1.8136   -8.5094    2.3742 C.3       1 UNK         0.0000 
     14 H14         1.9608   -9.0641    3.3296 H         1 UNK         0.0000 
     15 O15         0.7768   -9.1053    1.6296 O.3       1 UNK         0.0000 
     16 C16         1.4620   -7.0278    2.5937 C.3       1 UNK         0.0000 
     17 H17         0.4729   -6.8889    3.0871 H         1 UNK         0.0000 
     18 O18         2.4554   -6.4012    3.3656 O.3       1 UNK         0.0000 
     19 S19         2.8990   -7.1404    0.3093 S.3       1 UNK         0.0000 
     20 C20         1.4350   -6.4465    1.1702 C.3       1 UNK         0.0000 
     21 H21         0.5652   -6.8999    0.6436 H         1 UNK         0.0000 
     22 C22         1.2275   -4.8932    1.0732 C.3       1 UNK         0.0000 
     23 H23         0.2290   -4.7235    1.5325 H         1 UNK         0.0000 
     24 O24         2.1670   -4.1538    1.8121 O.3       1 UNK         0.0000 
     25 C25         1.1500   -4.4193   -0.4084 C.3       1 UNK         0.0000 
     26 H26         0.5825   -5.2194   -0.9405 H         1 UNK         0.0000 
     27 C27         2.4925   -4.3030   -1.0966 C.2       1 UNK         0.0000 
     28 O28         3.3993   -3.3932   -0.6921 O.3       1 UNK         0.0000 
     29 O29         2.7521   -5.0188   -2.0515 O.2       1 UNK         0.0000 
     30 N30         0.3710   -3.2055   -0.6339 N.am      1 UNK         0.0000 
     31 C31         0.6135   -1.9153   -0.2347 C.2       1 UNK         0.0000 
     32 O32         1.5160   -1.6383    0.5400 O.2       1 UNK         0.0000 
     33 C33        -0.2506   -0.8377   -0.8830 C.3       1 UNK         0.0000 
     34 H34        -1.3160   -1.1317   -0.7497 H         1 UNK         0.0000 
     35 C35         0.0605   -0.8634   -2.4053 C.3       1 UNK         0.0000 
     36 O36        -0.7645    0.0403   -3.0888 O.3       1 UNK         0.0000 
     37 N37        -0.1112    0.5463   -0.4107 N.am      1 UNK         0.0000 
     38 C38        -0.8328    1.0554    0.6395 C.2       1 UNK         0.0000 
     39 O39        -1.2932    0.3131    1.4948 O.2       1 UNK         0.0000 
     40 C40        -1.2969    2.5326    0.5804 C.3       1 UNK         0.0000 
     41 H41        -1.8973    2.7445    1.4910 H         1 UNK         0.0000 
     42 C42        -0.0151    3.4534    0.5798 C.3       1 UNK         0.0000 
     43 C43        -0.0925    4.9959    0.7408 C.3       1 UNK         0.0000 
     44 C44        -0.6633    5.5267    2.0895 C.3       1 UNK         0.0000 
     45 N45        -0.7684    6.9903    2.0796 N.am      1 UNK         0.0000 
     46 O46        -1.4294    7.7377    1.2184 O.co2     1 UNK         0.0000 
     47 C47        -0.3328    7.9685    2.7796 C.2       1 UNK         0.0000 
     48 O48        -0.7913    8.9764    2.2456 O.co2     1 UNK         0.0000 
     49 C49         0.5426    7.9289    3.9922 C.3       1 UNK         0.0000 
     50 N50        -2.2005    2.5514   -0.6044 N.am      1 UNK         0.0000 
     51 C51        -3.0823    3.4590   -1.1369 C.2       1 UNK         0.0000 
     52 O52        -3.7495    3.0966   -2.0996 O.2       1 UNK         0.0000 
     53 C53        -3.2993    4.8785   -0.6959 C.3       1 UNK         0.0000 
     54 H54        -2.6605    5.0870    0.1658 H         1 UNK         0.0000 
     55 C55        -2.8693    5.7674   -1.8936 C.3       1 UNK         0.0000 
     56 C56        -3.0928    7.2413   -1.6113 C.3       1 UNK         0.0000 
     57 C57        -2.2391    8.1571   -2.5096 C.3       1 UNK         0.0000 
     58 N58        -2.1371    9.4837   -1.9211 N.am      1 UNK         0.0000 
     59 O59        -1.6516    9.8312   -0.7038 O.co2     1 UNK         0.0000 
     60 C60        -2.9233   10.2050   -1.7050 C.2       1 UNK         0.0000 
     61 O61        -2.4867   10.4752   -0.5922 O.co2     1 UNK         0.0000 
     62 C62        -4.3376   10.3100   -2.2035 C.3       1 UNK         0.0000 
     63 N63        -4.6960    5.1477   -0.3362 N.am      1 UNK         0.0000 
     64 C64        -5.0586    5.6483    0.8913 C.2       1 UNK         0.0000 
     65 O65        -4.2059    5.8183    1.7517 O.2       1 UNK         0.0000 
     66 C66        -6.4975    6.0137    1.2663 C.3       1 UNK         0.0000 
     67 H67        -6.7609    5.3587    2.1263 H         1 UNK         0.0000 
     68 N68        -7.4495    5.7367    0.1875 N.3       1 UNK         0.0000 
     69 C69        -6.6017    7.4875    1.7757 C.3       1 UNK         0.0000 
     70 C70        -6.3853    8.5537    0.6785 C.3       1 UNK         0.0000 
     71 C71        -6.1220    9.9934    1.1979 C.3       1 UNK         0.0000 
     72 N72        -4.7477   10.1376    1.6504 N.am      1 UNK         0.0000 
     73 O73        -3.7592    9.2568    1.6321 O.co2     1 UNK         0.0000 
     74 C74        -3.9652   11.0927    1.9220 C.2       1 UNK         0.0000 
     75 O75        -2.8563   10.5209    1.9491 O.co2     1 UNK         0.0000 
     76 C76        -4.2458   12.5586    1.9916 C.3       1 UNK         0.0000 
     77 H77         5.1409   -8.7081   -0.0931 H         1 UNK         0.0000 
     78 H78         6.0448  -10.6484   -1.2174 H         1 UNK         0.0000 
     79 H79         4.8390  -14.0983   -0.9165 H         1 UNK         0.0000 
     80 H80         5.9998  -13.0136   -1.6644 H         1 UNK         0.0000 
     81 H81         2.6144  -13.9174   -0.1976 H         1 UNK         0.0000 
     82 H82         2.1462  -13.4816    1.4682 H         1 UNK         0.0000 
     83 H83         3.7683  -14.1707    1.1815 H         1 UNK         0.0000 
     84 H84         0.0294   -9.2697    2.2624 H         1 UNK         0.0000 
     85 H85         2.3679   -6.7608    4.2867 H         1 UNK         0.0000 
     86 H86         3.0668   -4.5148    1.6029 H         1 UNK         0.0000 
     87 H87        -0.4462   -3.3504   -1.2478 H         1 UNK         0.0000 
     88 H88         1.1317   -0.5800   -2.5450 H         1 UNK         0.0000 
     89 H89        -0.0928   -1.8712   -2.8445 H         1 UNK         0.0000 
     90 H90        -0.3536    0.1661   -3.9842 H         1 UNK         0.0000 
     91 H91         0.2263    1.2292   -1.1049 H         1 UNK         0.0000 
     92 H92         0.6240    3.1136    1.4249 H         1 UNK         0.0000 
     93 H93         0.5524    3.2648   -0.3546 H         1 UNK         0.0000 
     94 H94         0.9425    5.3948    0.6591 H         1 UNK         0.0000 
     95 H95        -0.6227    5.4009   -0.1302 H         1 UNK         0.0000 
     96 H96        -0.0233    5.1831    2.9283 H         1 UNK         0.0000 
     97 H97        -1.6771    5.1084    2.2426 H         1 UNK         0.0000 
     98 H98         1.4727    8.5008    3.7934 H         1 UNK         0.0000 
     99 H99         0.0072    8.3893    4.8482 H         1 UNK         0.0000 
    100 H100        0.8136    6.8873    4.2574 H         1 UNK         0.0000 
    101 H101       -2.2589    1.6580   -1.1239 H         1 UNK         0.0000 
    102 H102       -1.7866    5.5755   -2.0577 H         1 UNK         0.0000 
    103 H103       -3.4018    5.5153   -2.8373 H         1 UNK         0.0000 
    104 H104       -2.8084    7.4058   -0.5802 H         1 UNK         0.0000 
    105 H105       -4.1699    7.4849   -1.6653 H         1 UNK         0.0000 
    106 H106       -2.6454    8.1875   -3.5436 H         1 UNK         0.0000 
    107 H107       -1.2020    7.7596   -2.5546 H         1 UNK         0.0000 
    108 H108       -4.3627   10.1730   -3.3049 H         1 UNK         0.0000 
    109 H109       -4.7343   11.3175   -1.9611 H         1 UNK         0.0000 
    110 H110       -4.9910    9.5598   -1.7293 H         1 UNK         0.0000 
    111 H111       -5.4124    4.9935   -1.0598 H         1 UNK         0.0000 
    112 H112       -7.2530    6.3351   -0.6464 H         1 UNK         0.0000 
    113 H113       -8.4204    5.9368    0.5207 H         1 UNK         0.0000 
    114 H114       -7.5993    7.6681    2.2314 H         1 UNK         0.0000 
    115 H115       -5.8743    7.5977    2.5995 H         1 UNK         0.0000 
    116 H116       -5.5317    8.2667    0.0364 H         1 UNK         0.0000 
    117 H117       -7.2977    8.5583    0.0444 H         1 UNK         0.0000 
    118 H118       -6.2433   10.6753    0.3281 H         1 UNK         0.0000 
    119 H119       -6.8499   10.2936    1.9801 H         1 UNK         0.0000 
    120 H120       -5.3268   12.7550    1.8346 H         1 UNK         0.0000 
    121 H121       -3.6684   13.0769    1.1968 H         1 UNK         0.0000 
    122 H122       -3.9394   12.9515    2.9820 H         1 UNK         0.0000 
    123 H123        3.9516  -11.8592   -1.1716 H         1 UNK         0.0000 
    124 H124        4.1864   -3.4608   -1.2376 H         1 UNK         0.0000 
@<TRIPOS>BOND
     1    1   46 nc   
     2    1   48 nc   
     3    1   59 nc   
     4    1   61 nc   
     5    1   73 nc   
     6    1   75 nc   
     7    2   10 1    
     8    2    3 2    
     9    2   77 1    
    10    3    4 1    
    11    3   78 1    
    12    4    5 1    
    13    4    6 1    
    14    4  123 1    
    15    5   79 1    
    16    5   80 1    
    17    6    7 1    
    18    6    8 am   BACKBONE|DICT|INTERRES
    19    7   83 1    
    20    7   82 1    
    21    7   81 1    
    22    8    9 2    
    23    8   10 am   BACKBONE|DICT|INTERRES
    24   10   11 1    
    25   11   12 1    
    26   11   13 1    
    27   11   19 1    
    28   13   16 1    
    29   13   14 1    
    30   13   15 1    
    31   15   84 1    
    32   16   17 1    
    33   16   18 1    
    34   16   20 1    
    35   18   85 1    
    36   19   20 1    
    37   20   21 1    
    38   20   22 1    
    39   22   23 1    
    40   22   24 1    
    41   22   25 1    
    42   24   86 1    
    43   25   26 1    
    44   25   27 1    
    45   25   30 1    
    46   27   28 1    
    47   27   29 2    
    48   28  124 1    
    49   30   31 am   BACKBONE|DICT|INTERRES
    50   30   87 1    
    51   31   32 2    
    52   31   33 1    
    53   33   34 1    
    54   33   37 1    
    55   33   35 1    
    56   35   36 1    
    57   35   88 1    
    58   35   89 1    
    59   36   90 1    
    60   37   38 am   BACKBONE|DICT|INTERRES
    61   37   91 1    
    62   38   39 2    
    63   38   40 1    
    64   40   41 1    
    65   40   42 1    
    66   40   50 1    
    67   42   43 1    
    68   42   92 1    
    69   42   93 1    
    70   43   44 1    
    71   43   94 1    
    72   43   95 1    
    73   44   97 1    
    74   44   96 1    
    75   44   45 1    
    76   45   47 am   BACKBONE|DICT|INTERRES
    77   45   46 1    
    78   47   49 1    
    79   47   48 2    
    80   49  100 1    
    81   49   99 1    
    82   49   98 1    
    83   50   51 am   BACKBONE|DICT|INTERRES
    84   50  101 1    
    85   51   53 1    
    86   51   52 2    
    87   53   63 1    
    88   53   54 1    
    89   53   55 1    
    90   55   56 1    
    91   55  102 1    
    92   55  103 1    
    93   56  104 1    
    94   56   57 1    
    95   56  105 1    
    96   57   58 1    
    97   57  106 1    
    98   57  107 1    
    99   58   60 am   BACKBONE|DICT|INTERRES
   100   58   59 1    
   101   60   61 2    
   102   60   62 1    
   103   62  109 1    
   104   62  110 1    
   105   62  108 1    
   106   63   64 am   BACKBONE|DICT|INTERRES
   107   63  111 1    
   108   64   66 1    
   109   64   65 2    
   110   66   69 1    
   111   66   67 1    
   112   66   68 1    
   113   68  113 1    
   114   68  112 1    
   115   69  114 1    
   116   69  115 1    
   117   69   70 1    
   118   70   71 1    
   119   70  116 1    
   120   70  117 1    
   121   71   72 1    
   122   71  119 1    
   123   71  118 1    
   124   72   74 am   BACKBONE|DICT|INTERRES
   125   72   73 1    
   126   74   75 2    
   127   74   76 1    
   128   76  122 1    
   129   76  120 1    
   130   76  121 1    
@<TRIPOS>SUBSTRUCTURE
     1 UNK         1 GROUP             0       ****    0 ROOT    
@<TRIPOS>MOLECULE
030_c1
53   58    1
SMALL
USER_CHARGES


@<TRIPOS>ATOM
      1 Fe1        -0.3844    0.1385   -0.0554 Fe        1 UNK         0.0000 
      2 O2         -1.4210    0.0002   -1.3985 O.co2     1 UNK         0.0000 
      3 N3         -1.0572    0.1090   -2.6746 N.am      1 UNK         0.0000 
      4 C4         -0.4514   -0.9696   -3.4521 C.3       1 UNK         0.0000 
      5 C5         -0.1545   -2.2440   -2.5676 C.3       1 UNK         0.0000 
      6 C6          1.1740   -2.1804   -1.7484 C.3       1 UNK         0.0000 
      7 H7          1.9672   -2.1010   -2.5300 H         1 UNK         0.0000 
      8 O8          1.2147   -1.0477   -0.9290 O.co2     1 UNK         0.0000 
      9 C9          1.5074   -3.4220   -0.8688 C.3       1 UNK         0.0000 
     10 N10         0.7454   -3.4426    0.3800 N.am      1 UNK         0.0000 
     11 C11         1.3080   -3.1590    1.6065 C.2       1 UNK         0.0000 
     12 O12         2.4994   -2.8912    1.6931 O.2       1 UNK         0.0000 
     13 C13         0.4617   -3.0659    2.8740 C.3       1 UNK         0.0000 
     14 C14         0.2911   -1.5918    3.3654 C.3       1 UNK         0.0000 
     15 C15        -0.5316   -0.8537    2.3385 C.2       1 UNK         0.0000 
     16 O16        -0.3951   -1.1374    1.1675 O.co2     1 UNK         0.0000 
     17 N17        -1.2300    0.2729    2.4065 N.am      1 UNK         0.0000 
     18 O18        -1.8877    0.4843    1.2440 O.co2     1 UNK         0.0000 
     19 C19        -0.9954    1.3462    3.3457 C.3       1 UNK         0.0000 
     20 C20         0.4500    1.9002    3.1626 C.3       1 UNK         0.0000 
     21 C21         0.8996    2.3412    1.7263 C.3       1 UNK         0.0000 
     22 H22         1.9638    2.6645    1.8557 H         1 UNK         0.0000 
     23 O23         0.8687    1.2738    0.7766 O.co2     1 UNK         0.0000 
     24 C24         0.1671    3.5812    1.1633 C.3       1 UNK         0.0000 
     25 N25         0.6382    3.7920   -0.1983 N.am      1 UNK         0.0000 
     26 C26        -0.1902    3.8690   -1.2791 C.2       1 UNK         0.0000 
     27 O27        -1.3976    4.0101   -1.1363 O.2       1 UNK         0.0000 
     28 C28         0.3746    3.6261   -2.6640 C.3       1 UNK         0.0000 
     29 C29        -0.2979    2.4039   -3.3489 C.3       1 UNK         0.0000 
     30 C30        -0.5522    1.2315   -2.4242 C.2       1 UNK         0.0000 
     31 O31        -0.6857    1.2579   -1.1928 O.co2     1 UNK         0.0000 
     32 H32        -1.1808   -1.2404   -4.2435 H         1 UNK         0.0000 
     33 H33         0.4907   -0.6477   -3.9492 H         1 UNK         0.0000 
     34 H34        -0.0298   -3.1069   -3.2577 H         1 UNK         0.0000 
     35 H35        -1.0277   -2.4737   -1.9208 H         1 UNK         0.0000 
     36 H36         2.5908   -3.3404   -0.6347 H         1 UNK         0.0000 
     37 H37         1.3794   -4.3734   -1.4272 H         1 UNK         0.0000 
     38 H38        -0.2718   -3.6054    0.3212 H         1 UNK         0.0000 
     39 H39         0.9235   -3.6940    3.6649 H         1 UNK         0.0000 
     40 H40        -0.5561   -3.4769    2.6829 H         1 UNK         0.0000 
     41 H41        -0.2889   -1.6132    4.3135 H         1 UNK         0.0000 
     42 H42         1.2734   -1.1145    3.5490 H         1 UNK         0.0000 
     43 H43        -1.1648    0.9992    4.3872 H         1 UNK         0.0000 
     44 H44        -1.7090    2.1697    3.1327 H         1 UNK         0.0000 
     45 H45         1.1635    1.1215    3.4934 H         1 UNK         0.0000 
     46 H46         0.5799    2.7594    3.8554 H         1 UNK         0.0000 
     47 H47        -0.9311    3.4214    1.1810 H         1 UNK         0.0000 
     48 H48         0.4100    4.4613    1.7961 H         1 UNK         0.0000 
     49 H49         1.6576    3.7495   -0.3544 H         1 UNK         0.0000 
     50 H50         1.4609    3.4131   -2.5761 H         1 UNK         0.0000 
     51 H51         0.2517    4.5226   -3.3085 H         1 UNK         0.0000 
     52 H52        -1.3135    2.7226   -3.6732 H         1 UNK         0.0000 
     53 H53         0.2609    2.1061   -4.2598 H         1 UNK         0.0000 
@<TRIPOS>BOND
     1    1    2 nc   
     2    1    8 nc   
     3    1   16 nc   
     4    1   18 nc   
     5    1   23 nc   
     6    1   31 nc   
     7    2    3 1    
     8    3   30 am   BACKBONE|DICT|INTERRES
     9    3    4 1    
    10    4    5 1    
    11    4   32 1    
    12    4   33 1    
    13    5   35 1    
    14    5    6 1    
    15    5   34 1    
    16    6    7 1    
    17    6    8 1    
    18    6    9 1    
    19    9   36 1    
    20    9   10 1    
    21    9   37 1    
    22   10   11 am   BACKBONE|DICT|INTERRES
    23   10   38 1    
    24   11   12 2    
    25   11   13 1    
    26   13   14 1    
    27   13   39 1    
    28   13   40 1    
    29   14   42 1    
    30   14   41 1    
    31   14   15 1    
    32   15   16 2    
    33   15   17 am   BACKBONE|DICT|INTERRES
    34   17   19 1    
    35   17   18 1    
    36   19   43 1    
    37   19   20 1    
    38   19   44 1    
    39   20   45 1    
    40   20   46 1    
    41   20   21 1    
    42   21   22 1    
    43   21   23 1    
    44   21   24 1    
    45   24   47 1    
    46   24   48 1    
    47   24   25 1    
    48   25   26 am   BACKBONE|DICT|INTERRES
    49   25   49 1    
    50   26   27 2    
    51   26   28 1    
    52   28   50 1    
    53   28   29 1    
    54   28   51 1    
    55   29   30 1    
    56   29   52 1    
    57   29   53 1    
    58   30   31 2    
@<TRIPOS>SUBSTRUCTURE
     1 UNK         1 GROUP             0       ****    0 ROOT    
@<TRIPOS>MOLECULE
031_c1
115   121    1
SMALL
USER_CHARGES


@<TRIPOS>ATOM
      1 Fe1         0.5140    0.4204    4.8475 Fe        1 UNK         0.0000 
      2 C2          2.8092    5.2499    4.8453 C.ar      1 UNK         0.0000 
      3 C3          2.8225    4.9489    6.2200 C.ar      1 UNK         0.0000 
      4 C4          2.4729    3.6687    6.6602 C.ar      1 UNK         0.0000 
      5 C5          2.1099    2.7273    5.7003 C.ar      1 UNK         0.0000 
      6 O6          1.7475    1.4597    5.8993 O.co2     1 UNK         0.0000 
      7 C7          2.0835    2.9898    4.4097 C.ar      1 UNK         0.0000 
      8 O8          1.6811    1.8625    3.8022 O.co2     1 UNK         0.0000 
      9 C9          2.4390    4.2659    3.8872 C.ar      1 UNK         0.0000 
     10 C10         2.4306    4.5573    2.4160 C.2       1 UNK         0.0000 
     11 O11         2.1094    3.6588    1.6535 O.2       1 UNK         0.0000 
     12 N12         2.7669    5.7837    1.8973 N.am      1 UNK         0.0000 
     13 C13         2.7547    6.0461    0.4668 C.3       1 UNK         0.0000 
     14 C14         1.7127    7.1275    0.1303 C.3       1 UNK         0.0000 
     15 C15         1.3684    7.2009   -1.3773 C.3       1 UNK         0.0000 
     16 C16         0.6187    5.9221   -1.7987 C.3       1 UNK         0.0000 
     17 C17         0.0519    5.8718   -3.2321 C.3       1 UNK         0.0000 
     18 H18        -0.5624    6.7873   -3.3999 H         1 UNK         0.0000 
     19 N19         1.1221    5.8476   -4.2386 N.4       1 UNK         0.0000 
     20 H20         0.7039    5.8205   -5.1972 H         1 UNK         0.0000 
     21 H21         1.7438    5.0184   -4.1071 H         1 UNK         0.0000 
     22 H22         1.6968    6.7190   -4.1690 H         1 UNK         0.0000 
     23 C23        -0.9182    4.6487   -3.3659 C.3       1 UNK         0.0000 
     24 H24        -1.3110    4.6135   -4.4110 H         1 UNK         0.0000 
     25 O25        -2.0021    4.8468   -2.4897 O.3       1 UNK         0.0000 
     26 C26        -0.2900    3.2483   -3.0719 C.3       1 UNK         0.0000 
     27 C27        -1.3715    2.1883   -2.9674 C.2       1 UNK         0.0000 
     28 O28        -2.1350    2.0537   -3.9153 O.2       1 UNK         0.0000 
     29 N29        -1.5203    1.4219   -1.8324 N.am      1 UNK         0.0000 
     30 C30        -2.6702    0.5386   -1.6279 C.3       1 UNK         0.0000 
     31 H31        -3.4133    0.7883   -2.4195 H         1 UNK         0.0000 
     32 C32        -3.4962    0.8730   -0.3486 C.3       1 UNK         0.0000 
     33 O33        -3.0194    0.5791    0.9488 O.3       1 UNK         0.0000 
     34 C34        -3.8004    0.9787    2.0237 C.2       1 UNK         0.0000 
     35 O35        -4.7645    1.7048    1.7995 O.2       1 UNK         0.0000 
     36 C36        -3.6246    0.5682    3.5054 C.3       1 UNK         0.0000 
     37 H37        -4.4666    1.1217    3.9891 H         1 UNK         0.0000 
     38 C38        -2.4931    1.2022    4.3762 C.3       1 UNK         0.0000 
     39 H39        -2.6219    2.3097    4.4235 H         1 UNK         0.0000 
     40 O40        -1.2325    0.9084    3.9433 O.co2     1 UNK         0.0000 
     41 C41        -2.3466    0.6771    5.7235 C.2       1 UNK         0.0000 
     42 O42        -1.1039    0.1823    5.9378 O.co2     1 UNK         0.0000 
     43 O43        -3.2088    0.7129    6.5863 O.co2     1 UNK         0.0000 
     44 N44        -4.0116   -0.8094    3.8052 N.am      1 UNK         0.0000 
     45 C45        -3.2517   -1.9103    4.0766 C.2       1 UNK         0.0000 
     46 O46        -3.8286   -2.8723    4.5701 O.2       1 UNK         0.0000 
     47 C47        -1.7529   -2.0582    3.8553 C.3       1 UNK         0.0000 
     48 N48        -1.4997   -3.3749    3.3100 N.am      1 UNK         0.0000 
     49 C49        -0.3165   -4.0329    3.1278 C.2       1 UNK         0.0000 
     50 O50        -0.4367   -5.1988    2.8035 O.2       1 UNK         0.0000 
     51 C51         1.1401   -3.5766    3.3791 C.3       1 UNK         0.0000 
     52 H52         1.5434   -4.4308    3.9676 H         1 UNK         0.0000 
     53 C53         1.5583   -2.3587    4.2861 C.3       1 UNK         0.0000 
     54 H54         2.6728   -2.3023    4.3142 H         1 UNK         0.0000 
     55 O55         1.0165   -1.1001    3.9803 O.co2     1 UNK         0.0000 
     56 C56         1.2054   -2.1279    5.5778 C.2       1 UNK         0.0000 
     57 O57         0.9751   -0.7902    5.5221 O.co2     1 UNK         0.0000 
     58 O58         1.4978   -2.7648    6.5770 O.co2     1 UNK         0.0000 
     59 N59         1.9941   -3.5018    2.1660 N.am      1 UNK         0.0000 
     60 C60         2.1241   -4.2749    1.0338 C.2       1 UNK         0.0000 
     61 O61         3.1086   -4.0651    0.3353 O.2       1 UNK         0.0000 
     62 C62         1.1438   -5.3195    0.5033 C.3       1 UNK         0.0000 
     63 H63         0.9026   -6.0457    1.2937 H         1 UNK         0.0000 
     64 N64        -0.0397   -4.6511   -0.0438 N.am      1 UNK         0.0000 
     65 C65         0.0274   -3.6486   -0.9785 C.2       1 UNK         0.0000 
     66 O66         1.1066   -3.2313   -1.3737 O.2       1 UNK         0.0000 
     67 C67        -1.2157   -3.0529   -1.5802 C.3       1 UNK         0.0000 
     68 N68        -1.3869   -1.6350   -1.2707 N.am      1 UNK         0.0000 
     69 C69        -2.3811   -0.9328   -1.8842 C.2       1 UNK         0.0000 
     70 O70        -3.0770   -1.4963   -2.7216 O.2       1 UNK         0.0000 
     71 C71         1.7834   -6.2504   -0.5617 C.3       1 UNK         0.0000 
     72 C72         0.8432   -7.3978   -0.9968 C.3       1 UNK         0.0000 
     73 C73         1.6197   -8.4504   -1.8050 C.3       1 UNK         0.0000 
     74 N74         0.7817   -9.5707   -2.1905 N.pl3     1 UNK         0.0000 
     75 C75         1.3117  -10.7201   -2.8611 C.cat     1 UNK         0.0000 
     76 N76         2.7007  -10.8155   -3.1650 N.pl3     1 UNK         0.0000 
     77 N77         0.5266  -11.6902   -3.1862 N.pl3     1 UNK         0.0000 
     78 H78        -0.4814  -11.6521   -2.9758 H         1 UNK         0.0000 
     79 H79         0.8918  -12.5280   -3.6642 H         1 UNK         0.0000 
     80 H80         3.0936    6.2513    4.5689 H         1 UNK         0.0000 
     81 H81         3.1064    5.7073    6.9382 H         1 UNK         0.0000 
     82 H82         2.4818    3.4200    7.7134 H         1 UNK         0.0000 
     83 H83         3.0276    6.5695    2.5041 H         1 UNK         0.0000 
     84 H84         3.7597    6.3652    0.1186 H         1 UNK         0.0000 
     85 H85         2.5322    5.1126   -0.0671 H         1 UNK         0.0000 
     86 H86         2.0904    8.1074    0.4940 H         1 UNK         0.0000 
     87 H87         0.7668    6.9147    0.6787 H         1 UNK         0.0000 
     88 H88         0.6812    8.0626   -1.5252 H         1 UNK         0.0000 
     89 H89         2.2831    7.3695   -1.9809 H         1 UNK         0.0000 
     90 H90        -0.2345    5.8163   -1.0944 H         1 UNK         0.0000 
     91 H91         1.2849    5.0553   -1.6929 H         1 UNK         0.0000 
     92 H92        -2.6421    5.4522   -2.9493 H         1 UNK         0.0000 
     93 H93         0.2503    3.2441   -2.1083 H         1 UNK         0.0000 
     94 H94         0.4327    2.9943   -3.8771 H         1 UNK         0.0000 
     95 H95        -0.8330    1.5070   -1.0680 H         1 UNK         0.0000 
     96 H96        -4.4683    0.3419   -0.4652 H         1 UNK         0.0000 
     97 H97        -3.7031    1.9660   -0.4151 H         1 UNK         0.0000 
     98 H98        -5.0207   -0.9254    4.0038 H         1 UNK         0.0000 
     99 H99        -1.3472   -1.2895    3.1794 H         1 UNK         0.0000 
    100 H100       -1.3005   -2.0361    4.8601 H         1 UNK         0.0000 
    101 H101       -2.3327   -3.9398    3.0722 H         1 UNK         0.0000 
    102 H102        2.7508   -2.8013    2.2254 H         1 UNK         0.0000 
    103 H103       -0.9666   -4.9544    0.2888 H         1 UNK         0.0000 
    104 H104       -1.1221   -3.1873   -2.6827 H         1 UNK         0.0000 
    105 H105       -2.1199   -3.6020   -1.2431 H         1 UNK         0.0000 
    106 H106       -0.7564   -1.1609   -0.6065 H         1 UNK         0.0000 
    107 H107        2.6759   -6.7108   -0.0815 H         1 UNK         0.0000 
    108 H108        2.1225   -5.6889   -1.4585 H         1 UNK         0.0000 
    109 H109        0.4349   -7.9065   -0.0954 H         1 UNK         0.0000 
    110 H110       -0.0069   -6.9927   -1.5887 H         1 UNK         0.0000 
    111 H111        2.0535   -7.9845   -2.7158 H         1 UNK         0.0000 
    112 H112        2.4406   -8.8323   -1.1592 H         1 UNK         0.0000 
    113 H113       -0.2236   -9.5541   -1.9563 H         1 UNK         0.0000 
    114 H114        3.0779  -11.6529   -3.6321 H         1 UNK         0.0000 
    115 H115        3.3620  -10.0675   -2.9179 H         1 UNK         0.0000 
@<TRIPOS>BOND
     1    1    6 nc   
     2    1    8 nc   
     3    1   40 nc   
     4    1   42 nc   
     5    1   55 nc   
     6    1   57 nc   
     7    2    3 ar   
     8    2    9 ar   
     9    2   80 1    
    10    3    4 ar   
    11    3   81 1    
    12    4   82 1    
    13    4    5 ar   
    14    5    6 1    
    15    5    7 ar   
    16    7    8 1    
    17    7    9 ar   
    18    9   10 1    
    19   10   11 2    
    20   10   12 am   BACKBONE|DICT|INTERRES
    21   12   83 1    
    22   12   13 1    
    23   13   14 1    
    24   13   84 1    
    25   13   85 1    
    26   14   86 1    
    27   14   87 1    
    28   14   15 1    
    29   15   16 1    
    30   15   88 1    
    31   15   89 1    
    32   16   91 1    
    33   16   90 1    
    34   16   17 1    
    35   17   18 1    
    36   17   19 1    
    37   17   23 1    
    38   19   22 1    
    39   19   21 1    
    40   19   20 1    
    41   23   24 1    
    42   23   26 1    
    43   23   25 1    
    44   25   92 1    
    45   26   27 1    
    46   26   93 1    
    47   26   94 1    
    48   27   29 am   BACKBONE|DICT|INTERRES
    49   27   28 2    
    50   29   30 1    
    51   29   95 1    
    52   30   31 1    
    53   30   32 1    
    54   30   69 1    
    55   32   33 1    
    56   32   96 1    
    57   32   97 1    
    58   33   34 1    
    59   34   36 1    
    60   34   35 2    
    61   36   44 1    
    62   36   37 1    
    63   36   38 1    
    64   38   39 1    
    65   38   41 1    
    66   38   40 1    
    67   41   42 1    
    68   41   43 2    
    69   44   98 1    
    70   44   45 am   BACKBONE|DICT|INTERRES
    71   45   46 2    
    72   45   47 1    
    73   47  100 1    
    74   47   48 1    
    75   47   99 1    
    76   48   49 am   BACKBONE|DICT|INTERRES
    77   48  101 1    
    78   49   51 1    
    79   49   50 2    
    80   51   52 1    
    81   51   53 1    
    82   51   59 1    
    83   53   54 1    
    84   53   56 1    
    85   53   55 1    
    86   56   58 2    
    87   56   57 1    
    88   59  102 1    
    89   59   60 am   BACKBONE|DICT|INTERRES
    90   60   61 2    
    91   60   62 1    
    92   62   63 1    
    93   62   64 1    
    94   62   71 1    
    95   64  103 1    
    96   64   65 am   BACKBONE|DICT|INTERRES
    97   65   66 2    
    98   65   67 1    
    99   67   68 1    
   100   67  105 1    
   101   67  104 1    
   102   68  106 1    
   103   68   69 am   BACKBONE|DICT|INTERRES
   104   69   70 2    
   105   71  107 1    
   106   71   72 1    
   107   71  108 1    
   108   72  109 1    
   109   72   73 1    
   110   72  110 1    
   111   73  112 1    
   112   73   74 1    
   113   73  111 1    
   114   74  113 1    
   115   74   75 ar   
   116   75   76 ar   
   117   75   77 ar   
   118   76  115 1    
   119   76  114 1    
   120   77   78 1    
   121   77   79 1    
@<TRIPOS>SUBSTRUCTURE
     1 UNK         1 GROUP             0       ****    0 ROOT    
@<TRIPOS>MOLECULE
032_c2
118   123    1
SMALL
USER_CHARGES


@<TRIPOS>ATOM
      1 Fe1         1.1107   -1.2061   -5.8175 Fe        1 UNK         0.0000 
      2 C2          1.6718    4.1567   -5.5217 C.ar      1 UNK         0.0000 
      3 C3          2.8814    3.8412   -6.1517 C.ar      1 UNK         0.0000 
      4 C4          3.1533    2.5252   -6.5116 C.ar      1 UNK         0.0000 
      5 C5          2.1919    1.5501   -6.2507 C.ar      1 UNK         0.0000 
      6 O6          2.3396    0.2562   -6.5195 O.co2     1 UNK         0.0000 
      7 C7          1.0085    1.8309   -5.6733 C.ar      1 UNK         0.0000 
      8 O8          0.2482    0.7203   -5.5937 O.co2     1 UNK         0.0000 
      9 C9          0.6968    3.1558   -5.2527 C.ar      1 UNK         0.0000 
     10 C10        -0.5479    3.5124   -4.4930 C.2       1 UNK         0.0000 
     11 O11        -1.1840    2.6296   -3.9365 O.2       1 UNK         0.0000 
     12 N12        -0.9540    4.8113   -4.3765 N.am      1 UNK         0.0000 
     13 C13        -2.0399    5.2625   -3.5243 C.3       1 UNK         0.0000 
     14 C14        -1.5296    6.4293   -2.6596 C.3       1 UNK         0.0000 
     15 C15        -2.6313    7.1083   -1.8371 C.3       1 UNK         0.0000 
     16 C16        -3.1249    6.3271   -0.6030 C.3       1 UNK         0.0000 
     17 C17        -2.0806    6.1191    0.5419 C.3       1 UNK         0.0000 
     18 H18        -1.2802    5.4447    0.1700 H         1 UNK         0.0000 
     19 N19        -1.4524    7.3983    0.9256 N.4       1 UNK         0.0000 
     20 H20        -0.8956    7.7837    0.1314 H         1 UNK         0.0000 
     21 H21        -2.1648    8.1032    1.2212 H         1 UNK         0.0000 
     22 H22        -0.7566    7.2589    1.6894 H         1 UNK         0.0000 
     23 C23        -2.7829    5.4294    1.7672 C.3       1 UNK         0.0000 
     24 H24        -3.1225    4.4229    1.4383 H         1 UNK         0.0000 
     25 O25        -3.9416    6.1424    2.1329 O.3       1 UNK         0.0000 
     26 C26        -1.9120    5.2292    3.0355 C.3       1 UNK         0.0000 
     27 C27        -0.7064    4.3268    2.8923 C.2       1 UNK         0.0000 
     28 O28         0.1364    4.5738    2.0422 O.2       1 UNK         0.0000 
     29 N29        -0.5097    3.3183    3.7919 N.am      1 UNK         0.0000 
     30 C30         0.7112    2.5246    3.8541 C.3       1 UNK         0.0000 
     31 H31         1.3025    2.6281    2.9179 H         1 UNK         0.0000 
     32 C32         1.5958    3.0698    4.9928 C.3       1 UNK         0.0000 
     33 O33         0.9227    3.0138    6.2230 O.3       1 UNK         0.0000 
     34 C34         0.4049    1.0599    4.1106 C.2       1 UNK         0.0000 
     35 O35        -0.2230    0.7673    5.1220 O.2       1 UNK         0.0000 
     36 N36         0.8779    0.0775    3.2867 N.am      1 UNK         0.0000 
     37 C37         0.7775   -1.3336    3.6330 C.3       1 UNK         0.0000 
     38 C38         0.0143   -2.1584    2.6278 C.2       1 UNK         0.0000 
     39 O39        -1.1419   -1.8575    2.3674 O.2       1 UNK         0.0000 
     40 N40         0.5646   -3.3074    2.1333 N.am      1 UNK         0.0000 
     41 C41        -0.2381   -4.3223    1.4612 C.3       1 UNK         0.0000 
     42 H42        -1.2320   -4.3643    1.9680 H         1 UNK         0.0000 
     43 C43         0.3650   -5.7306    1.6406 C.3       1 UNK         0.0000 
     44 C44         0.3830   -6.1350    3.1254 C.3       1 UNK         0.0000 
     45 C45         0.9018   -7.5613    3.3222 C.3       1 UNK         0.0000 
     46 N46         0.8677   -7.9271    4.7259 N.pl3     1 UNK         0.0000 
     47 C47         1.2756   -9.2114    5.1984 C.cat     1 UNK         0.0000 
     48 N48         1.7541  -10.2057    4.2967 N.pl3     1 UNK         0.0000 
     49 N49         1.2070   -9.4774    6.4573 N.pl3     1 UNK         0.0000 
     50 H50         0.8621   -8.7755    7.1294 H         1 UNK         0.0000 
     51 H51         1.4943  -10.3985    6.8209 H         1 UNK         0.0000 
     52 C52        -0.4848   -4.0159    0.0023 C.2       1 UNK         0.0000 
     53 O53        -1.6439   -3.8062   -0.3302 O.2       1 UNK         0.0000 
     54 N54         0.5154   -4.0260   -0.9377 N.am      1 UNK         0.0000 
     55 C55         0.2262   -3.8158   -2.3551 C.3       1 UNK         0.0000 
     56 H56        -0.8623   -3.6227   -2.4688 H         1 UNK         0.0000 
     57 C57         0.8893   -2.5338   -2.9440 C.3       1 UNK         0.0000 
     58 H58         0.8400   -1.7157   -2.1936 H         1 UNK         0.0000 
     59 O59         0.2075   -2.1076   -4.0800 O.co2     1 UNK         0.0000 
     60 C60         2.2232   -2.6615   -3.5385 C.2       1 UNK         0.0000 
     61 O61         2.2237   -2.3895   -4.8726 O.co2     1 UNK         0.0000 
     62 O62         3.2324   -2.9614   -2.9216 O.co2     1 UNK         0.0000 
     63 C63         0.5852   -5.0133   -3.2125 C.2       1 UNK         0.0000 
     64 O64         1.6975   -5.5138   -3.1141 O.2       1 UNK         0.0000 
     65 N65        -0.2530   -5.3760   -4.2217 N.am      1 UNK         0.0000 
     66 C66         0.1391   -6.2557   -5.3039 C.3       1 UNK         0.0000 
     67 C67         0.3086   -5.4202   -6.5585 C.2       1 UNK         0.0000 
     68 O68         1.3976   -5.4027   -7.1095 O.2       1 UNK         0.0000 
     69 N69        -0.7397   -4.6943   -7.0494 N.am      1 UNK         0.0000 
     70 C70        -0.7451   -3.8557   -8.2506 C.3       1 UNK         0.0000 
     71 H71        -1.7886   -3.4780   -8.3566 H         1 UNK         0.0000 
     72 C72        -0.4545   -4.6632   -9.4972 C.2       1 UNK         0.0000 
     73 O73         0.7476   -5.2355   -9.6963 O.3       1 UNK         0.0000 
     74 O74        -1.3208   -4.7954  -10.3476 O.2       1 UNK         0.0000 
     75 C75         0.1135   -2.5561   -8.1708 C.3       1 UNK         0.0000 
     76 H76        -0.0586   -1.9314   -9.0776 H         1 UNK         0.0000 
     77 O77        -0.1065   -1.8116   -6.9909 O.co2     1 UNK         0.0000 
     78 C78         1.5101   -2.6460   -7.9691 C.2       1 UNK         0.0000 
     79 O79         1.7517   -1.9045   -6.8486 O.co2     1 UNK         0.0000 
     80 O80         2.3624   -3.1110   -8.7081 O.co2     1 UNK         0.0000 
     81 H81         1.5453    5.1862   -5.2279 H         1 UNK         0.0000 
     82 H82         3.6153    4.6149   -6.3384 H         1 UNK         0.0000 
     83 H83         4.0949    2.2677   -6.9798 H         1 UNK         0.0000 
     84 H84        -0.4851    5.5455   -4.9224 H         1 UNK         0.0000 
     85 H85        -2.4446    4.4436   -2.8926 H         1 UNK         0.0000 
     86 H86        -2.8568    5.6427   -4.1751 H         1 UNK         0.0000 
     87 H87        -1.1476    7.2012   -3.3644 H         1 UNK         0.0000 
     88 H88        -0.6804    6.1205   -2.0140 H         1 UNK         0.0000 
     89 H89        -3.4906    7.3191   -2.5103 H         1 UNK         0.0000 
     90 H90        -2.2683    8.1015   -1.5031 H         1 UNK         0.0000 
     91 H91        -3.5379    5.3454   -0.9186 H         1 UNK         0.0000 
     92 H92        -3.9657    6.9295   -0.1972 H         1 UNK         0.0000 
     93 H93        -3.6626    7.0029    2.5411 H         1 UNK         0.0000 
     94 H94        -2.5679    4.8247    3.8370 H         1 UNK         0.0000 
     95 H95        -1.5656    6.2156    3.4059 H         1 UNK         0.0000 
     96 H96        -1.1929    3.2034    4.5569 H         1 UNK         0.0000 
     97 H97         2.5322    2.4700    5.0483 H         1 UNK         0.0000 
     98 H98         1.8535    4.1285    4.7650 H         1 UNK         0.0000 
     99 H99         1.5466    3.3866    6.8987 H         1 UNK         0.0000 
    100 H100        1.4021    0.3333    2.4366 H         1 UNK         0.0000 
    101 H101        0.2568   -1.4713    4.6045 H         1 UNK         0.0000 
    102 H102        1.8031   -1.7375    3.7685 H         1 UNK         0.0000 
    103 H103        1.5184   -3.5572    2.4383 H         1 UNK         0.0000 
    104 H104        1.3913   -5.7722    1.2153 H         1 UNK         0.0000 
    105 H105       -0.2736   -6.4599    1.0932 H         1 UNK         0.0000 
    106 H106        1.0225   -5.4376    3.7076 H         1 UNK         0.0000 
    107 H107       -0.6536   -6.0815    3.5263 H         1 UNK         0.0000 
    108 H108        1.9460   -7.6272    2.9466 H         1 UNK         0.0000 
    109 H109        0.2572   -8.2624    2.7483 H         1 UNK         0.0000 
    110 H110        0.5261   -7.2381    5.4156 H         1 UNK         0.0000 
    111 H111        1.8218  -10.0285    3.2855 H         1 UNK         0.0000 
    112 H112        2.0433  -11.1305    4.6453 H         1 UNK         0.0000 
    113 H113        1.4879   -4.2063   -0.6475 H         1 UNK         0.0000 
    114 H114       -1.1655   -4.9042   -4.3063 H         1 UNK         0.0000 
    115 H115       -0.6358   -7.0380   -5.4469 H         1 UNK         0.0000 
    116 H116        1.1011   -6.7687   -5.0844 H         1 UNK         0.0000 
    117 H117       -1.6380   -4.7617   -6.5472 H         1 UNK         0.0000 
    118 H118        0.7451   -5.7028  -10.5349 H         1 UNK         0.0000 
@<TRIPOS>BOND
     1    1    6 nc   
     2    1    8 nc   
     3    1   59 nc   
     4    1   61 nc   
     5    1   77 nc   
     6    1   79 nc   
     7    2    9 ar   
     8    2   81 1    
     9    2    3 ar   
    10    3    4 ar   
    11    3   82 1    
    12    4    5 ar   
    13    4   83 1    
    14    5    7 ar   
    15    5    6 1    
    16    7    8 1    
    17    7    9 ar   
    18    9   10 1    
    19   10   12 am   BACKBONE|DICT|INTERRES
    20   10   11 2    
    21   12   13 1    
    22   12   84 1    
    23   13   85 1    
    24   13   14 1    
    25   13   86 1    
    26   14   88 1    
    27   14   15 1    
    28   14   87 1    
    29   15   90 1    
    30   15   16 1    
    31   15   89 1    
    32   16   92 1    
    33   16   17 1    
    34   16   91 1    
    35   17   18 1    
    36   17   19 1    
    37   17   23 1    
    38   19   21 1    
    39   19   22 1    
    40   19   20 1    
    41   23   24 1    
    42   23   25 1    
    43   23   26 1    
    44   25   93 1    
    45   26   95 1    
    46   26   94 1    
    47   26   27 1    
    48   27   29 am   BACKBONE|DICT|INTERRES
    49   27   28 2    
    50   29   30 1    
    51   29   96 1    
    52   30   31 1    
    53   30   34 1    
    54   30   32 1    
    55   32   97 1    
    56   32   33 1    
    57   32   98 1    
    58   33   99 1    
    59   34   35 2    
    60   34   36 am   BACKBONE|DICT|INTERRES
    61   36   37 1    
    62   36  100 1    
    63   37  102 1    
    64   37  101 1    
    65   37   38 1    
    66   38   39 2    
    67   38   40 am   BACKBONE|DICT|INTERRES
    68   40  103 1    
    69   40   41 1    
    70   41   43 1    
    71   41   42 1    
    72   41   52 1    
    73   43   44 1    
    74   43  104 1    
    75   43  105 1    
    76   44   45 1    
    77   44  107 1    
    78   44  106 1    
    79   45   46 1    
    80   45  108 1    
    81   45  109 1    
    82   46   47 ar   
    83   46  110 1    
    84   47   49 ar   
    85   47   48 ar   
    86   48  112 1    
    87   48  111 1    
    88   49   51 1    
    89   49   50 1    
    90   52   53 2    
    91   52   54 am   BACKBONE|DICT|INTERRES
    92   54  113 1    
    93   54   55 1    
    94   55   56 1    
    95   55   57 1    
    96   55   63 1    
    97   57   58 1    
    98   57   59 1    
    99   57   60 1    
   100   60   62 2    
   101   60   61 1    
   102   63   64 2    
   103   63   65 am   BACKBONE|DICT|INTERRES
   104   65   66 1    
   105   65  114 1    
   106   66  116 1    
   107   66   67 1    
   108   66  115 1    
   109   67   68 2    
   110   67   69 am   BACKBONE|DICT|INTERRES
   111   69  117 1    
   112   69   70 1    
   113   70   71 1    
   114   70   75 1    
   115   70   72 1    
   116   72   73 1    
   117   72   74 2    
   118   73  118 1    
   119   75   76 1    
   120   75   78 1    
   121   75   77 1    
   122   78   79 1    
   123   78   80 2    
@<TRIPOS>SUBSTRUCTURE
     1 UNK         1 GROUP             0       ****    0 ROOT    
@<TRIPOS>MOLECULE
033_c1
94   99    1
SMALL
USER_CHARGES


@<TRIPOS>ATOM
      1 Fe1         0.0000    0.0000    0.0000 Fe        1 UNK         0.0000 
      2 C2          3.9632    3.3622    0.0583 C.ar      1 UNK         0.0000 
      3 C3          2.9152    4.2754    0.1236 C.ar      1 UNK         0.0000 
      4 C4          1.6009    3.8344    0.0876 C.ar      1 UNK         0.0000 
      5 C5          1.3109    2.4686    0.0154 C.ar      1 UNK         0.0000 
      6 O6          0.0000    2.0800    0.0000 O.co2     1 UNK         0.0000 
      7 C7          2.3775    1.5075   -0.0276 C.ar      1 UNK         0.0000 
      8 O8          2.0734    0.1651    0.0000 O.co2     1 UNK         0.0000 
      9 C9          3.7258    1.9755   -0.0436 C.ar      1 UNK         0.0000 
     10 C10         4.9273    1.0943   -0.2009 C.2       1 UNK         0.0000 
     11 O11         6.0000    1.4831    0.2419 O.2       1 UNK         0.0000 
     12 N12         4.8768   -0.0655   -0.9204 N.am      1 UNK         0.0000 
     13 C13         6.0316   -0.9119   -1.1587 C.3       1 UNK         0.0000 
     14 C14         6.3150   -0.9586   -2.6625 C.3       1 UNK         0.0000 
     15 C15         7.5250   -1.8460   -2.9785 C.3       1 UNK         0.0000 
     16 C16         7.8001   -1.9671   -4.4878 C.3       1 UNK         0.0000 
     17 N17         8.1477   -0.6839   -5.1025 N.4       1 UNK         0.0000 
     18 H18         8.9667   -0.2574   -4.6118 H         1 UNK         0.0000 
     19 H19         7.3350   -0.0279   -5.0807 H         1 UNK         0.0000 
     20 H20         8.4017   -0.8465   -6.1035 H         1 UNK         0.0000 
     21 H21         4.9728    3.7536    0.0573 H         1 UNK         0.0000 
     22 H22         3.1244    5.3356    0.1865 H         1 UNK         0.0000 
     23 H23         0.7979    4.5604    0.1279 H         1 UNK         0.0000 
     24 H24         4.0075   -0.3451   -1.3932 H         1 UNK         0.0000 
     25 H25         6.9342   -0.5369   -0.6293 H         1 UNK         0.0000 
     26 H26         5.8127   -1.9340   -0.7811 H         1 UNK         0.0000 
     27 H27         6.5034    0.0795   -3.0087 H         1 UNK         0.0000 
     28 H28         5.4198   -1.3574   -3.1890 H         1 UNK         0.0000 
     29 H29         8.4284   -1.4464   -2.4679 H         1 UNK         0.0000 
     30 H30         7.3266   -2.8677   -2.5871 H         1 UNK         0.0000 
     31 H31         8.6506   -2.6707   -4.6255 H         1 UNK         0.0000 
     32 H32         6.9123   -2.3998   -5.0004 H         1 UNK         0.0000 
     33 C33         0.2521   -3.2576    4.0005 C.ar      1 UNK         0.0000 
     34 C34         0.3172   -4.1877    2.9692 C.ar      1 UNK         0.0000 
     35 C35         0.2148   -3.7775    1.6488 C.ar      1 UNK         0.0000 
     36 C36         0.0760   -2.4232    1.3290 C.ar      1 UNK         0.0000 
     37 O37         0.0000   -2.0800    0.0000 O.co2     1 UNK         0.0000 
     38 C38         0.0355   -1.4367    2.3873 C.ar      1 UNK         0.0000 
     39 O39         0.0000   -0.0916    2.0780 O.co2     1 UNK         0.0000 
     40 C40         0.0855   -1.8821    3.7432 C.ar      1 UNK         0.0000 
     41 C41        -0.0632   -0.9866    4.9372 C.2       1 UNK         0.0000 
     42 O42         0.4408   -1.3357    5.9965 O.2       1 UNK         0.0000 
     43 N43        -0.8364    0.1390    4.8994 N.am      1 UNK         0.0000 
     44 C44        -1.0637    0.9957    6.0496 C.3       1 UNK         0.0000 
     45 C45        -2.5553    0.9866    6.3954 C.3       1 UNK         0.0000 
     46 C46        -2.8588    1.8842    7.6017 C.3       1 UNK         0.0000 
     47 C47        -4.3601    1.9525    7.9345 C.3       1 UNK         0.0000 
     48 N48        -4.9102    0.6537    8.3291 N.4       1 UNK         0.0000 
     49 H49        -4.3729    0.2635    9.1369 H         1 UNK         0.0000 
     50 H50        -4.8929   -0.0171    7.5288 H         1 UNK         0.0000 
     51 H51        -5.9067    0.7827    8.6181 H         1 UNK         0.0000 
     52 H52         0.3050   -3.6286    5.0170 H         1 UNK         0.0000 
     53 H53         0.4316   -5.2398    3.1970 H         1 UNK         0.0000 
     54 H54         0.2562   -4.5204    0.8617 H         1 UNK         0.0000 
     55 H55        -1.3564    0.3820    4.0459 H         1 UNK         0.0000 
     56 H56        -0.4822    0.6599    6.9356 H         1 UNK         0.0000 
     57 H57        -0.7391    2.0286    5.7986 H         1 UNK         0.0000 
     58 H58        -2.8509   -0.0606    6.6163 H         1 UNK         0.0000 
     59 H59        -3.1336    1.3470    5.5162 H         1 UNK         0.0000 
     60 H60        -2.2977    1.5227    8.4911 H         1 UNK         0.0000 
     61 H61        -2.5166    2.9166    7.3699 H         1 UNK         0.0000 
     62 H62        -4.4924    2.6670    8.7767 H         1 UNK         0.0000 
     63 H63        -4.9233    2.3478    7.0600 H         1 UNK         0.0000 
     64 C64        -3.1869    0.0353   -4.0383 C.ar      1 UNK         0.0000 
     65 C65        -4.1342    0.1023   -3.0241 C.ar      1 UNK         0.0000 
     66 C66        -3.7424    0.0732   -1.6947 C.ar      1 UNK         0.0000 
     67 C67        -2.3901    0.0073   -1.3455 C.ar      1 UNK         0.0000 
     68 O68        -2.0800    0.0000    0.0000 O.co2     1 UNK         0.0000 
     69 C69        -1.3804   -0.0359   -2.3945 C.ar      1 UNK         0.0000 
     70 O70        -0.0323    0.0000   -2.0797 O.co2     1 UNK         0.0000 
     71 C71        -1.8098   -0.0607   -3.7568 C.ar      1 UNK         0.0000 
     72 C72        -0.8929   -0.2207   -4.9340 C.2       1 UNK         0.0000 
     73 O73        -1.2479    0.2283   -6.0161 O.2       1 UNK         0.0000 
     74 N74         0.2623   -0.9463   -4.8540 N.am      1 UNK         0.0000 
     75 C75         1.1433   -1.1798   -5.9847 C.3       1 UNK         0.0000 
     76 C76         1.2013   -2.6819   -6.2777 C.3       1 UNK         0.0000 
     77 C77         2.1298   -2.9878   -7.4601 C.3       1 UNK         0.0000 
     78 C78         2.2678   -4.4949   -7.7405 C.3       1 UNK         0.0000 
     79 N79         1.0010   -5.1137   -8.1371 N.4       1 UNK         0.0000 
     80 H80         0.6032   -4.6219   -8.9699 H         1 UNK         0.0000 
     81 H81         0.3155   -5.0975   -7.3493 H         1 UNK         0.0000 
     82 H82         1.1775   -6.1130   -8.3888 H         1 UNK         0.0000 
     83 H83        -3.5443    0.0284   -5.0606 H         1 UNK         0.0000 
     84 H84        -5.1863    0.1609   -3.2714 H         1 UNK         0.0000 
     85 H85        -4.5012    0.1144   -0.9230 H         1 UNK         0.0000 
     86 H86         0.5150   -1.4235   -3.9785 H         1 UNK         0.0000 
     87 H87         0.7968   -0.6446   -6.8953 H         1 UNK         0.0000 
     88 H88         2.1586   -0.8040   -5.7325 H         1 UNK         0.0000 
     89 H89         0.1710   -3.0294   -6.5026 H         1 UNK         0.0000 
     90 H90         1.5721   -3.2139   -5.3738 H         1 UNK         0.0000 
     91 H91         1.7589   -2.4731   -8.3734 H         1 UNK         0.0000 
     92 H92         3.1429   -2.5938   -7.2254 H         1 UNK         0.0000 
     93 H93         3.0018   -4.6241   -8.5665 H         1 UNK         0.0000 
     94 H94         2.6718   -5.0110   -6.8414 H         1 UNK         0.0000 
@<TRIPOS>BOND
     1    1    6 nc   
     2    1    8 nc   
     3    1   37 nc   
     4    1   39 nc   
     5    1   68 nc   
     6    1   70 nc   
     7    2    3 ar   
     8    2    9 ar   
     9    2   21 1    
    10    3   22 1    
    11    3    4 ar   
    12    4   23 1    
    13    4    5 ar   
    14    5    6 1    
    15    5    7 ar   
    16    7    8 1    
    17    7    9 ar   
    18    9   10 1    
    19   10   11 2    
    20   10   12 am   BACKBONE|DICT|INTERRES
    21   12   13 1    
    22   12   24 1    
    23   13   26 1    
    24   13   25 1    
    25   13   14 1    
    26   14   15 1    
    27   14   27 1    
    28   14   28 1    
    29   15   30 1    
    30   15   29 1    
    31   15   16 1    
    32   16   17 1    
    33   16   31 1    
    34   16   32 1    
    35   17   19 1    
    36   17   18 1    
    37   17   20 1    
    38   33   52 1    
    39   33   34 ar   
    40   33   40 ar   
    41   34   53 1    
    42   34   35 ar   
    43   35   36 ar   
    44   35   54 1    
    45   36   38 ar   
    46   36   37 1    
    47   38   40 ar   
    48   38   39 1    
    49   40   41 1    
    50   41   42 2    
    51   41   43 am   BACKBONE|DICT|INTERRES
    52   43   44 1    
    53   43   55 1    
    54   44   45 1    
    55   44   56 1    
    56   44   57 1    
    57   45   58 1    
    58   45   46 1    
    59   45   59 1    
    60   46   47 1    
    61   46   60 1    
    62   46   61 1    
    63   47   48 1    
    64   47   62 1    
    65   47   63 1    
    66   48   51 1    
    67   48   49 1    
    68   48   50 1    
    69   64   71 ar   
    70   64   65 ar   
    71   64   83 1    
    72   65   66 ar   
    73   65   84 1    
    74   66   67 ar   
    75   66   85 1    
    76   67   68 1    
    77   67   69 ar   
    78   69   70 1    
    79   69   71 ar   
    80   71   72 1    
    81   72   74 am   BACKBONE|DICT|INTERRES
    82   72   73 2    
    83   74   86 1    
    84   74   75 1    
    85   75   88 1    
    86   75   76 1    
    87   75   87 1    
    88   76   90 1    
    89   76   77 1    
    90   76   89 1    
    91   77   92 1    
    92   77   78 1    
    93   77   91 1    
    94   78   94 1    
    95   78   79 1    
    96   78   93 1    
    97   79   81 1    
    98   79   80 1    
    99   79   82 1    
@<TRIPOS>SUBSTRUCTURE
     1 UNK         1 GROUP             0       ****    0 ROOT    
@<TRIPOS>MOLECULE
034_c1
97   104    1
SMALL
USER_CHARGES


@<TRIPOS>ATOM
      1 Fe1         1.2972   -0.5631    2.2105 Fe        1 UNK         0.0000 
      2 C2         -1.7145   -3.6712    5.0356 C.ar      1 UNK         0.0000 
      3 C3         -0.4818   -4.3040    5.2982 C.ar      1 UNK         0.0000 
      4 C4          0.7208   -3.6948    4.9022 C.ar      1 UNK         0.0000 
      5 C5          0.6491   -2.4429    4.2897 C.ar      1 UNK         0.0000 
      6 O6          1.6576   -1.6982    3.8144 O.co2     1 UNK         0.0000 
      7 C7         -0.5038   -1.8265    4.0783 C.ar      1 UNK         0.0000 
      8 O8         -0.2441   -0.6090    3.5911 O.co2     1 UNK         0.0000 
      9 C9         -1.7473   -2.4181    4.3825 C.ar      1 UNK         0.0000 
     10 C10        -3.0498   -1.8091    3.9917 C.2       1 UNK         0.0000 
     11 O11        -4.0414   -2.0271    4.6738 O.2       1 UNK         0.0000 
     12 N12        -3.1589   -1.1315    2.8067 N.am      1 UNK         0.0000 
     13 C13        -4.3982   -0.5404    2.3143 C.3       1 UNK         0.0000 
     14 C14        -4.9928   -1.3071    1.1112 C.3       1 UNK         0.0000 
     15 C15        -4.4800   -1.0898   -0.3414 C.3       1 UNK         0.0000 
     16 C16        -3.0250   -1.4730   -0.6743 C.3       1 UNK         0.0000 
     17 C17        -2.0284   -0.3147   -0.4854 C.3       1 UNK         0.0000 
     18 H18        -2.1725    0.0704    0.5341 H         1 UNK         0.0000 
     19 C19        -0.5953   -0.8049   -0.5359 C.2       1 UNK         0.0000 
     20 O20         0.0608   -0.6089    0.4397 O.co2     1 UNK         0.0000 
     21 N21        -0.0372   -1.5019   -1.5499 N.am      1 UNK         0.0000 
     22 C22         1.3334   -2.0608   -1.5533 C.3       1 UNK         0.0000 
     23 H23         1.7462   -1.7454   -2.5369 H         1 UNK         0.0000 
     24 C24         2.3426   -1.5521   -0.4619 C.2       1 UNK         0.0000 
     25 O25         2.2137   -1.7456    0.8987 O.co2     1 UNK         0.0000 
     26 O26         3.3175   -0.9258   -0.8462 O.co2     1 UNK         0.0000 
     27 C27         1.1982   -3.6000   -1.5583 C.3       1 UNK         0.0000 
     28 C28         2.3619   -4.4231   -2.0734 C.ar      1 UNK         0.0000 
     29 C29         3.5724   -3.8756   -2.5457 C.ar      1 UNK         0.0000 
     30 C30         4.5729   -4.7100   -3.0563 C.ar      1 UNK         0.0000 
     31 C31         4.3812   -6.0925   -3.1030 C.ar      1 UNK         0.0000 
     32 C32         3.1892   -6.6465   -2.6356 C.ar      1 UNK         0.0000 
     33 C33         2.1873   -5.8186   -2.1246 C.ar      1 UNK         0.0000 
     34 N34        -2.2765    0.7757   -1.4297 N.am      1 UNK         0.0000 
     35 C35        -2.6446    2.0231   -0.9982 C.2       1 UNK         0.0000 
     36 O36        -2.7314    2.2567    0.2010 O.2       1 UNK         0.0000 
     37 C37        -2.9969    3.1581   -1.9422 C.3       1 UNK         0.0000 
     38 H38        -3.2884    3.9955   -1.2785 H         1 UNK         0.0000 
     39 N39        -4.1680    2.7991   -2.7544 N.4       1 UNK         0.0000 
     40 H40        -4.4990    3.6160   -3.3133 H         1 UNK         0.0000 
     41 H41        -4.9545    2.5064   -2.1294 H         1 UNK         0.0000 
     42 H42        -3.9406    2.0110   -3.4029 H         1 UNK         0.0000 
     43 C43        -1.7993    3.6086   -2.8268 C.3       1 UNK         0.0000 
     44 C44        -1.9824    5.0440   -3.4098 C.3       1 UNK         0.0000 
     45 C45        -1.8025    6.1450   -2.3319 C.3       1 UNK         0.0000 
     46 C46        -0.3201    6.3887   -1.9971 C.3       1 UNK         0.0000 
     47 N47        -0.1639    6.8393   -0.6189 N.am      1 UNK         0.0000 
     48 C48         0.6250    6.1565    0.2600 C.2       1 UNK         0.0000 
     49 O49         1.2683    5.1894   -0.1308 O.2       1 UNK         0.0000 
     50 C50         0.7396    6.5695    1.7198 C.3       1 UNK         0.0000 
     51 N51         1.6759    5.6877    2.4049 N.am      1 UNK         0.0000 
     52 C52         1.4466    4.3435    2.5178 C.2       1 UNK         0.0000 
     53 O53         0.3594    3.8952    2.1819 O.2       1 UNK         0.0000 
     54 C54         2.5386    3.3921    2.8789 C.ar      1 UNK         0.0000 
     55 C55         2.4067    1.9992    2.6599 C.ar      1 UNK         0.0000 
     56 O56         1.4948    1.1489    2.2246 O.co2     1 UNK         0.0000 
     57 C57         3.2644    1.2247    2.7806 C.ar      1 UNK         0.0000 
     58 O58         2.6004    0.1344    2.2944 O.co2     1 UNK         0.0000 
     59 C59         4.5648    1.4944    3.2179 C.ar      1 UNK         0.0000 
     60 C60         4.8425    2.8391    3.5288 C.ar      1 UNK         0.0000 
     61 C61         3.8237    3.8079    3.3453 C.ar      1 UNK         0.0000 
     62 H62        -2.6336   -4.1762    5.3058 H         1 UNK         0.0000 
     63 H63        -0.4631   -5.2732    5.7793 H         1 UNK         0.0000 
     64 H64         1.6730   -4.1807    5.0698 H         1 UNK         0.0000 
     65 H65        -2.3317   -1.1002    2.2079 H         1 UNK         0.0000 
     66 H66        -4.2667    0.5381    2.0848 H         1 UNK         0.0000 
     67 H67        -5.1649   -0.6017    3.1170 H         1 UNK         0.0000 
     68 H68        -4.9824   -2.3916    1.3571 H         1 UNK         0.0000 
     69 H69        -6.0624   -1.0032    1.0593 H         1 UNK         0.0000 
     70 H70        -5.1183   -1.7752   -0.9425 H         1 UNK         0.0000 
     71 H71        -4.7033   -0.0636   -0.7040 H         1 UNK         0.0000 
     72 H72        -2.7532   -2.3727   -0.0799 H         1 UNK         0.0000 
     73 H73        -2.9670   -1.7521   -1.7493 H         1 UNK         0.0000 
     74 H74        -0.6343   -1.7147   -2.3636 H         1 UNK         0.0000 
     75 H75         0.9084   -3.9345   -0.5381 H         1 UNK         0.0000 
     76 H76         0.3599   -3.8577   -2.2441 H         1 UNK         0.0000 
     77 H77         3.7556   -2.8133   -2.5433 H         1 UNK         0.0000 
     78 H78         5.4961   -4.2825   -3.4253 H         1 UNK         0.0000 
     79 H79         5.1538   -6.7344   -3.5058 H         1 UNK         0.0000 
     80 H80         3.0364   -7.7174   -2.6764 H         1 UNK         0.0000 
     81 H81         1.2629   -6.2663   -1.7787 H         1 UNK         0.0000 
     82 H82        -2.1994    0.5882   -2.4405 H         1 UNK         0.0000 
     83 H83        -0.8631    3.5856   -2.2332 H         1 UNK         0.0000 
     84 H84        -1.6776    2.8683   -3.6463 H         1 UNK         0.0000 
     85 H85        -2.9880    5.1208   -3.8669 H         1 UNK         0.0000 
     86 H86        -1.2460    5.2348   -4.2207 H         1 UNK         0.0000 
     87 H87        -2.3671    5.8733   -1.4223 H         1 UNK         0.0000 
     88 H88        -2.2206    7.1166   -2.6736 H         1 UNK         0.0000 
     89 H89         0.2573    5.4599   -2.1647 H         1 UNK         0.0000 
     90 H90         0.1016    7.1296   -2.7100 H         1 UNK         0.0000 
     91 H91        -0.6726    7.6786   -0.3025 H         1 UNK         0.0000 
     92 H92         1.1227    7.6120    1.7547 H         1 UNK         0.0000 
     93 H93        -0.2523    6.5376    2.2199 H         1 UNK         0.0000 
     94 H94         2.5722    6.1000    2.6928 H         1 UNK         0.0000 
     95 H95         5.3171    0.7199    3.2910 H         1 UNK         0.0000 
     96 H96         5.8290    3.1298    3.8658 H         1 UNK         0.0000 
     97 H97         4.0663    4.8395    3.5452 H         1 UNK         0.0000 
@<TRIPOS>BOND
     1    1    6 nc   
     2    1    8 nc   
     3    1   20 nc   
     4    1   25 nc   
     5    1   56 nc   
     6    1   58 nc   
     7    2    3 ar   
     8    2   62 1    
     9    2    9 ar   
    10    3   63 1    
    11    3    4 ar   
    12    4   64 1    
    13    4    5 ar   
    14    5    6 1    
    15    5    7 ar   
    16    7    9 ar   
    17    7    8 1    
    18    9   10 1    
    19   10   11 2    
    20   10   12 am   BACKBONE|DICT|INTERRES
    21   12   13 1    
    22   12   65 1    
    23   13   67 1    
    24   13   14 1    
    25   13   66 1    
    26   14   68 1    
    27   14   15 1    
    28   14   69 1    
    29   15   16 1    
    30   15   70 1    
    31   15   71 1    
    32   16   17 1    
    33   16   72 1    
    34   16   73 1    
    35   17   18 1    
    36   17   19 1    
    37   17   34 1    
    38   19   20 2    
    39   19   21 am   BACKBONE|DICT|INTERRES
    40   21   22 1    
    41   21   74 1    
    42   22   23 1    
    43   22   24 1    
    44   22   27 1    
    45   24   25 1    
    46   24   26 2    
    47   27   75 1    
    48   27   28 1    
    49   27   76 1    
    50   28   29 ar   
    51   28   33 ar   
    52   29   77 1    
    53   29   30 ar   
    54   30   31 ar   
    55   30   78 1    
    56   31   32 ar   
    57   31   79 1    
    58   32   33 ar   
    59   32   80 1    
    60   33   81 1    
    61   34   35 am   BACKBONE|DICT|INTERRES
    62   34   82 1    
    63   35   36 2    
    64   35   37 1    
    65   37   38 1    
    66   37   39 1    
    67   37   43 1    
    68   39   41 1    
    69   39   40 1    
    70   39   42 1    
    71   43   83 1    
    72   43   44 1    
    73   43   84 1    
    74   44   45 1    
    75   44   85 1    
    76   44   86 1    
    77   45   46 1    
    78   45   87 1    
    79   45   88 1    
    80   46   47 1    
    81   46   89 1    
    82   46   90 1    
    83   47   91 1    
    84   47   48 am   BACKBONE|DICT|INTERRES
    85   48   50 1    
    86   48   49 2    
    87   50   92 1    
    88   50   93 1    
    89   50   51 1    
    90   51   52 am   BACKBONE|DICT|INTERRES
    91   51   94 1    
    92   52   54 1    
    93   52   53 2    
    94   54   61 ar   
    95   54   55 ar   
    96   55   57 ar   
    97   55   56 1    
    98   57   59 ar   
    99   57   58 1    
   100   59   95 1    
   101   59   60 ar   
   102   60   96 1    
   103   60   61 ar   
   104   61   97 1    
@<TRIPOS>SUBSTRUCTURE
     1 UNK         1 GROUP             0       ****    0 ROOT    
@<TRIPOS>MOLECULE
035_c1
101   109    1
SMALL
USER_CHARGES


@<TRIPOS>ATOM
      1 Fe1        -1.9824   -0.4395   -1.4653 Fe        1 UNK         0.0000 
      2 C2         -2.3416   -4.9664    3.3877 C.ar      1 UNK         0.0000 
      3 C3         -3.2283   -5.9081    3.9436 C.ar      1 UNK         0.0000 
      4 C4         -2.9685   -7.2924    3.8327 C.ar      1 UNK         0.0000 
      5 C5         -1.8215   -7.7499    3.1623 C.ar      1 UNK         0.0000 
      6 C6         -0.9619   -6.7969    2.6216 C.ar      1 UNK         0.0000 
      7 C7         -1.2101   -5.4487    2.7296 C.ar      1 UNK         0.0000 
      8 N8          0.1875   -7.0230    1.9644 N.pl3     1 UNK         0.0000 
      9 H9          0.6198   -7.9486    1.7484 H         1 UNK         0.0000 
     10 C10         0.6900   -5.8093    1.6553 C.ar      1 UNK         0.0000 
     11 C11        -0.1561   -4.8009    2.1148 C.ar      1 UNK         0.0000 
     12 C12         0.1154   -3.3245    2.0027 C.3       1 UNK         0.0000 
     13 C13         0.3420   -2.8599    0.5497 C.3       1 UNK         0.0000 
     14 H14         0.9674   -3.6309    0.0476 H         1 UNK         0.0000 
     15 C15        -0.9932   -2.7826   -0.2440 C.2       1 UNK         0.0000 
     16 O16        -2.0116   -1.8873    0.0155 O.co2     1 UNK         0.0000 
     17 O17        -1.1348   -3.5436   -1.1884 O.co2     1 UNK         0.0000 
     18 N18         1.2078   -1.6657    0.5785 N.am      1 UNK         0.0000 
     19 C19         0.9301   -0.4472    0.0549 C.2       1 UNK         0.0000 
     20 O20        -0.0999   -0.2881   -0.5402 O.co2     1 UNK         0.0000 
     21 C21         1.8708    0.7501    0.1459 C.3       1 UNK         0.0000 
     22 H22         1.2542    1.6283   -0.1547 H         1 UNK         0.0000 
     23 C23         3.0395    0.6073   -0.8669 C.3       1 UNK         0.0000 
     24 C24         2.4601    0.8192   -2.2819 C.3       1 UNK         0.0000 
     25 C25         3.3525    0.3660   -3.4517 C.3       1 UNK         0.0000 
     26 C26         2.6185    0.5013   -4.8168 C.3       1 UNK         0.0000 
     27 N27         1.3736   -0.2532   -4.8170 N.am      1 UNK         0.0000 
     28 C28         0.5060   -0.3610   -5.8595 C.2       1 UNK         0.0000 
     29 O29         0.7916    0.0733   -6.9656 O.2       1 UNK         0.0000 
     30 C30        -0.7408   -1.1352   -5.6283 C.ar      1 UNK         0.0000 
     31 C31        -1.4568   -1.0108   -4.4157 C.ar      1 UNK         0.0000 
     32 O32        -1.3108   -0.1122   -3.4369 O.co2     1 UNK         0.0000 
     33 C33        -2.4528   -1.8082   -4.0959 C.ar      1 UNK         0.0000 
     34 O34        -2.8668   -1.5326   -2.8527 O.co2     1 UNK         0.0000 
     35 C35        -2.9281   -2.7870   -4.9731 C.ar      1 UNK         0.0000 
     36 C36        -2.3074   -2.9059   -6.2318 C.ar      1 UNK         0.0000 
     37 C37        -1.2077   -2.0834   -6.5607 C.ar      1 UNK         0.0000 
     38 N38         2.3056    0.9851    1.5152 N.am      1 UNK         0.0000 
     39 C39         2.7017    2.2076    1.9820 C.2       1 UNK         0.0000 
     40 O40         2.9301    2.3270    3.1775 O.2       1 UNK         0.0000 
     41 C41         2.8281    3.4461    1.0905 C.3       1 UNK         0.0000 
     42 H42         2.7573    3.1678    0.0239 H         1 UNK         0.0000 
     43 N43         4.1385    4.0833    1.2764 N.4       1 UNK         0.0000 
     44 H44         4.8942    3.4052    1.0241 H         1 UNK         0.0000 
     45 H45         4.2236    4.9175    0.6514 H         1 UNK         0.0000 
     46 H46         4.2787    4.3814    2.2682 H         1 UNK         0.0000 
     47 C47         1.6513    4.4390    1.2834 C.3       1 UNK         0.0000 
     48 C48         1.5417    5.0761    2.6741 C.3       1 UNK         0.0000 
     49 C49         0.3589    6.0539    2.8363 C.3       1 UNK         0.0000 
     50 C50         0.4119    7.2780    1.9006 C.3       1 UNK         0.0000 
     51 N51        -0.0906    7.0057    0.5597 N.am      1 UNK         0.0000 
     52 C52        -1.4236    6.8589    0.3018 C.2       1 UNK         0.0000 
     53 O53        -2.2373    6.9134    1.2140 O.2       1 UNK         0.0000 
     54 C54        -1.9386    6.7463   -1.1159 C.3       1 UNK         0.0000 
     55 N55        -2.9214    5.6836   -1.2446 N.am      1 UNK         0.0000 
     56 C56        -2.6207    4.3594   -1.1327 C.2       1 UNK         0.0000 
     57 O57        -1.4566    4.0287   -0.9627 O.2       1 UNK         0.0000 
     58 C58        -3.6894    3.3029   -1.1776 C.ar      1 UNK         0.0000 
     59 C59        -3.3917    1.9220   -1.1196 C.ar      1 UNK         0.0000 
     60 O60        -2.3123    1.1519   -1.0534 O.co2     1 UNK         0.0000 
     61 C61        -4.1756    1.0595   -1.0663 C.ar      1 UNK         0.0000 
     62 O62        -3.2928    0.0312   -0.9239 O.co2     1 UNK         0.0000 
     63 C63        -5.5623    1.2099   -1.0832 C.ar      1 UNK         0.0000 
     64 C64        -6.0307    2.5350   -1.1838 C.ar      1 UNK         0.0000 
     65 C65        -5.0889    3.5975   -1.2264 C.ar      1 UNK         0.0000 
     66 H66        -2.5339   -3.9057    3.4767 H         1 UNK         0.0000 
     67 H67        -4.1138   -5.5698    4.4648 H         1 UNK         0.0000 
     68 H68        -3.6535   -8.0071    4.2695 H         1 UNK         0.0000 
     69 H69        -1.6080   -8.8079    3.0766 H         1 UNK         0.0000 
     70 H70         1.6295   -5.6631    1.1363 H         1 UNK         0.0000 
     71 H71        -0.6599   -2.7001    2.4948 H         1 UNK         0.0000 
     72 H72         1.0616   -3.1853    2.5693 H         1 UNK         0.0000 
     73 H73         2.1176   -1.7736    1.0524 H         1 UNK         0.0000 
     74 H74         3.4890   -0.4024   -0.7456 H         1 UNK         0.0000 
     75 H75         3.8439    1.3561   -0.7142 H         1 UNK         0.0000 
     76 H76         1.5358    0.2384   -2.3159 H         1 UNK         0.0000 
     77 H77         2.1717    1.8858   -2.4100 H         1 UNK         0.0000 
     78 H78         3.6214   -0.7026   -3.3022 H         1 UNK         0.0000 
     79 H79         4.2879    0.9653   -3.4659 H         1 UNK         0.0000 
     80 H80         2.3929    1.5734   -5.0032 H         1 UNK         0.0000 
     81 H81         3.2829    0.1291   -5.6260 H         1 UNK         0.0000 
     82 H82         1.1264   -0.7957   -3.9821 H         1 UNK         0.0000 
     83 H83        -3.7507   -3.4329   -4.6953 H         1 UNK         0.0000 
     84 H84        -2.6527   -3.6524   -6.9351 H         1 UNK         0.0000 
     85 H85        -0.7019   -2.2202   -7.5082 H         1 UNK         0.0000 
     86 H86         2.1780    0.2351    2.2126 H         1 UNK         0.0000 
     87 H87         0.6991    3.9110    1.0557 H         1 UNK         0.0000 
     88 H88         1.7871    5.2428    0.5337 H         1 UNK         0.0000 
     89 H89         2.4782    5.6291    2.8979 H         1 UNK         0.0000 
     90 H90         1.4146    4.2821    3.4383 H         1 UNK         0.0000 
     91 H91        -0.6200    5.5353    2.7551 H         1 UNK         0.0000 
     92 H92         0.4439    6.4355    3.8776 H         1 UNK         0.0000 
     93 H93        -0.2025    8.1001    2.3298 H         1 UNK         0.0000 
     94 H94         1.4585    7.6508    1.8604 H         1 UNK         0.0000 
     95 H95         0.5689    7.0506   -0.2314 H         1 UNK         0.0000 
     96 H96        -2.4519    7.7076   -1.3355 H         1 UNK         0.0000 
     97 H97        -1.1198    6.6263   -1.8580 H         1 UNK         0.0000 
     98 H98        -3.8866    5.9815   -1.4298 H         1 UNK         0.0000 
     99 H99        -6.2329    0.3635   -1.0160 H         1 UNK         0.0000 
    100 H100       -7.0933    2.7383   -1.2037 H         1 UNK         0.0000 
    101 H101       -5.4756    4.6027   -1.2685 H         1 UNK         0.0000 
@<TRIPOS>BOND
     1    1   16 nc   
     2    1   20 nc   
     3    1   32 nc   
     4    1   34 nc   
     5    1   60 nc   
     6    1   62 nc   
     7    2   66 1    
     8    2    3 ar   
     9    2    7 ar   
    10    3   67 1    
    11    3    4 ar   
    12    4   68 1    
    13    4    5 ar   
    14    5    6 ar   
    15    5   69 1    
    16    6    7 ar   
    17    6    8 ar   
    18    7   11 ar   
    19    8    9 1    
    20    8   10 ar   
    21   10   11 ar   
    22   10   70 1    
    23   11   12 1    
    24   12   71 1    
    25   12   72 1    
    26   12   13 1    
    27   13   14 1    
    28   13   18 1    
    29   13   15 1    
    30   15   16 1    
    31   15   17 2    
    32   18   73 1    
    33   18   19 am   BACKBONE|DICT|INTERRES
    34   19   21 1    
    35   19   20 2    
    36   21   22 1    
    37   21   38 1    
    38   21   23 1    
    39   23   74 1    
    40   23   75 1    
    41   23   24 1    
    42   24   25 1    
    43   24   76 1    
    44   24   77 1    
    45   25   78 1    
    46   25   26 1    
    47   25   79 1    
    48   26   27 1    
    49   26   80 1    
    50   26   81 1    
    51   27   82 1    
    52   27   28 am   BACKBONE|DICT|INTERRES
    53   28   30 1    
    54   28   29 2    
    55   30   31 ar   
    56   30   37 ar   
    57   31   33 ar   
    58   31   32 1    
    59   33   34 1    
    60   33   35 ar   
    61   35   83 1    
    62   35   36 ar   
    63   36   37 ar   
    64   36   84 1    
    65   37   85 1    
    66   38   39 am   BACKBONE|DICT|INTERRES
    67   38   86 1    
    68   39   40 2    
    69   39   41 1    
    70   41   42 1    
    71   41   43 1    
    72   41   47 1    
    73   43   46 1    
    74   43   44 1    
    75   43   45 1    
    76   47   48 1    
    77   47   87 1    
    78   47   88 1    
    79   48   49 1    
    80   48   89 1    
    81   48   90 1    
    82   49   92 1    
    83   49   50 1    
    84   49   91 1    
    85   50   93 1    
    86   50   51 1    
    87   50   94 1    
    88   51   52 am   BACKBONE|DICT|INTERRES
    89   51   95 1    
    90   52   53 2    
    91   52   54 1    
    92   54   55 1    
    93   54   96 1    
    94   54   97 1    
    95   55   56 am   BACKBONE|DICT|INTERRES
    96   55   98 1    
    97   56   57 2    
    98   56   58 1    
    99   58   59 ar   
   100   58   65 ar   
   101   59   61 ar   
   102   59   60 1    
   103   61   62 1    
   104   61   63 ar   
   105   63   99 1    
   106   63   64 ar   
   107   64   65 ar   
   108   64  100 1    
   109   65  101 1    
@<TRIPOS>SUBSTRUCTURE
     1 UNK         1 GROUP             0       ****    0 ROOT    
@<TRIPOS>MOLECULE
036_c1
90   97    1
SMALL
USER_CHARGES


@<TRIPOS>ATOM
      1 Fe1         1.5905   -0.2165    1.6858 Fe        1 UNK         0.0000 
      2 C2          0.0897   -2.3636    6.4484 C.ar      1 UNK         0.0000 
      3 C3          1.2912   -3.0805    6.2615 C.ar      1 UNK         0.0000 
      4 C4          2.0663   -2.8681    5.1049 C.ar      1 UNK         0.0000 
      5 C5          1.6364   -1.8971    4.1953 C.ar      1 UNK         0.0000 
      6 O6          2.1768   -1.5578    3.0250 O.co2     1 UNK         0.0000 
      7 C7          0.5516   -1.1851    4.3895 C.ar      1 UNK         0.0000 
      8 O8          0.4602   -0.2559    3.4217 O.co2     1 UNK         0.0000 
      9 C9         -0.3133   -1.4222    5.4809 C.ar      1 UNK         0.0000 
     10 C10        -1.6526   -0.7957    5.5057 C.2       1 UNK         0.0000 
     11 O11        -2.1949   -0.4548    6.5458 O.2       1 UNK         0.0000 
     12 N12        -2.3033   -0.7429    4.3147 N.am      1 UNK         0.0000 
     13 C13        -3.6022   -0.1604    4.0601 C.3       1 UNK         0.0000 
     14 C14        -3.9347   -0.3209    2.5569 C.3       1 UNK         0.0000 
     15 C15        -2.8776    0.3777    1.6713 C.3       1 UNK         0.0000 
     16 C16        -3.0901    0.1234    0.1724 C.3       1 UNK         0.0000 
     17 C17        -2.0485    0.8589   -0.7110 C.3       1 UNK         0.0000 
     18 H18        -2.4237    0.7252   -1.7482 H         1 UNK         0.0000 
     19 C19        -0.6238    0.2119   -0.6997 C.2       1 UNK         0.0000 
     20 O20         0.0053    0.0050    0.3394 O.co2     1 UNK         0.0000 
     21 N21        -0.1224   -0.2161   -1.9048 N.am      1 UNK         0.0000 
     22 C22         1.1655   -0.8436   -2.2204 C.3       1 UNK         0.0000 
     23 H23         1.5662   -0.2848   -3.0982 H         1 UNK         0.0000 
     24 C24         2.2307   -0.7340   -1.1509 C.2       1 UNK         0.0000 
     25 O25         2.1058   -1.3469    0.0473 O.co2     1 UNK         0.0000 
     26 O26         3.2488   -0.1015   -1.3865 O.co2     1 UNK         0.0000 
     27 C27         0.9050   -2.2971   -2.6729 C.3       1 UNK         0.0000 
     28 C28         2.1036   -3.0006   -3.2786 C.ar      1 UNK         0.0000 
     29 C29         3.2180   -3.3621   -2.4983 C.ar      1 UNK         0.0000 
     30 C30         4.3027   -4.0278   -3.0774 C.ar      1 UNK         0.0000 
     31 C31         4.2880   -4.3420   -4.4379 C.ar      1 UNK         0.0000 
     32 C32         3.1868   -3.9937   -5.2219 C.ar      1 UNK         0.0000 
     33 C33         2.0992   -3.3298   -4.6474 C.ar      1 UNK         0.0000 
     34 N34        -2.1480    2.3072   -0.4736 N.am      1 UNK         0.0000 
     35 C35        -1.4678    3.2687   -1.1553 C.2       1 UNK         0.0000 
     36 O36        -0.5280    2.9681   -1.8774 O.2       1 UNK         0.0000 
     37 C37        -1.9640    4.7232   -1.1174 C.3       1 UNK         0.0000 
     38 H38        -2.9170    4.7878   -0.5451 H         1 UNK         0.0000 
     39 N39        -2.2549    5.1514   -2.4933 N.4       1 UNK         0.0000 
     40 H40        -1.3829    5.1605   -3.0724 H         1 UNK         0.0000 
     41 H41        -2.6693    6.1122   -2.4935 H         1 UNK         0.0000 
     42 H42        -2.9500    4.5026   -2.9302 H         1 UNK         0.0000 
     43 C43        -0.9863    5.7192   -0.4580 C.3       1 UNK         0.0000 
     44 C44        -0.9185    5.5967    1.0778 C.3       1 UNK         0.0000 
     45 C45         0.1300    6.6093    1.6194 C.3       1 UNK         0.0000 
     46 C46         0.5199    6.4881    3.1194 C.3       1 UNK         0.0000 
     47 N47         1.4068    5.3808    3.5103 N.am      1 UNK         0.0000 
     48 C48         1.8245    4.3619    2.7075 C.2       1 UNK         0.0000 
     49 O49         1.4677    4.2957    1.5479 O.2       1 UNK         0.0000 
     50 C50         2.7954    3.3315    3.1061 C.ar      1 UNK         0.0000 
     51 C51         2.7215    2.0903    2.4798 C.ar      1 UNK         0.0000 
     52 O52         1.8397    1.4474    1.7031 O.co2     1 UNK         0.0000 
     53 C53         3.5454    1.2503    2.4978 C.ar      1 UNK         0.0000 
     54 O54         2.9554    0.4094    1.5785 O.co2     1 UNK         0.0000 
     55 C55         4.7152    1.3109    3.2619 C.ar      1 UNK         0.0000 
     56 C56         4.8710    2.4755    4.0628 C.ar      1 UNK         0.0000 
     57 C57         3.8983    3.5172    3.9760 C.ar      1 UNK         0.0000 
     58 H58        -0.5388   -2.5833    7.3022 H         1 UNK         0.0000 
     59 H59         1.5939   -3.8263    6.9849 H         1 UNK         0.0000 
     60 H60         2.9664   -3.4413    4.9252 H         1 UNK         0.0000 
     61 H61        -1.8355   -1.2087    3.5265 H         1 UNK         0.0000 
     62 H62        -3.5853    0.9190    4.3230 H         1 UNK         0.0000 
     63 H63        -4.3720   -0.6733    4.6751 H         1 UNK         0.0000 
     64 H64        -4.9382    0.1086    2.3479 H         1 UNK         0.0000 
     65 H65        -3.9615   -1.4060    2.3135 H         1 UNK         0.0000 
     66 H66        -1.8622    0.0253    1.8878 H         1 UNK         0.0000 
     67 H67        -2.9061    1.4574    1.9191 H         1 UNK         0.0000 
     68 H68        -4.1048    0.4961   -0.0924 H         1 UNK         0.0000 
     69 H69        -3.0580   -0.9660   -0.0479 H         1 UNK         0.0000 
     70 H70        -0.7254   -0.0981   -2.7331 H         1 UNK         0.0000 
     71 H71         0.5046   -2.9002   -1.8296 H         1 UNK         0.0000 
     72 H72         0.1045   -2.2482   -3.4442 H         1 UNK         0.0000 
     73 H73         3.2519   -3.1470   -1.4408 H         1 UNK         0.0000 
     74 H74         5.1538   -4.3048   -2.4689 H         1 UNK         0.0000 
     75 H75         5.1276   -4.8593   -4.8835 H         1 UNK         0.0000 
     76 H76         3.1736   -4.2404   -6.2757 H         1 UNK         0.0000 
     77 H77         1.2549   -3.0720   -5.2747 H         1 UNK         0.0000 
     78 H78        -2.9137    2.6423    0.1281 H         1 UNK         0.0000 
     79 H79        -1.3270    6.7569   -0.6709 H         1 UNK         0.0000 
     80 H80         0.0177    5.5874   -0.9188 H         1 UNK         0.0000 
     81 H81        -1.9076    5.8167    1.5348 H         1 UNK         0.0000 
     82 H82        -0.7153    4.5443    1.3315 H         1 UNK         0.0000 
     83 H83         1.0710    6.5821    1.0258 H         1 UNK         0.0000 
     84 H84        -0.3006    7.6204    1.4544 H         1 UNK         0.0000 
     85 H85        -0.3960    6.4795    3.7469 H         1 UNK         0.0000 
     86 H86         1.0783    7.4198    3.3537 H         1 UNK         0.0000 
     87 H87         1.7388    5.3881    4.4855 H         1 UNK         0.0000 
     88 H88         5.4451    0.5119    3.2551 H         1 UNK         0.0000 
     89 H89         5.7418    2.5901    4.6949 H         1 UNK         0.0000 
     90 H90         4.0409    4.4437    4.5161 H         1 UNK         0.0000 
@<TRIPOS>BOND
     1    1    6 nc   
     2    1    8 nc   
     3    1   20 nc   
     4    1   25 nc   
     5    1   52 nc   
     6    1   54 nc   
     7    2   58 1    
     8    2    3 ar   
     9    2    9 ar   
    10    3   59 1    
    11    3    4 ar   
    12    4    5 ar   
    13    4   60 1    
    14    5    7 ar   
    15    5    6 1    
    16    7    9 ar   
    17    7    8 1    
    18    9   10 1    
    19   10   11 2    
    20   10   12 am   BACKBONE|DICT|INTERRES
    21   12   13 1    
    22   12   61 1    
    23   13   62 1    
    24   13   63 1    
    25   13   14 1    
    26   14   15 1    
    27   14   64 1    
    28   14   65 1    
    29   15   66 1    
    30   15   67 1    
    31   15   16 1    
    32   16   17 1    
    33   16   68 1    
    34   16   69 1    
    35   17   18 1    
    36   17   34 1    
    37   17   19 1    
    38   19   20 2    
    39   19   21 am   BACKBONE|DICT|INTERRES
    40   21   22 1    
    41   21   70 1    
    42   22   23 1    
    43   22   24 1    
    44   22   27 1    
    45   24   25 1    
    46   24   26 2    
    47   27   71 1    
    48   27   28 1    
    49   27   72 1    
    50   28   29 ar   
    51   28   33 ar   
    52   29   73 1    
    53   29   30 ar   
    54   30   74 1    
    55   30   31 ar   
    56   31   32 ar   
    57   31   75 1    
    58   32   33 ar   
    59   32   76 1    
    60   33   77 1    
    61   34   78 1    
    62   34   35 am   BACKBONE|DICT|INTERRES
    63   35   37 1    
    64   35   36 2    
    65   37   38 1    
    66   37   43 1    
    67   37   39 1    
    68   39   40 1    
    69   39   41 1    
    70   39   42 1    
    71   43   44 1    
    72   43   79 1    
    73   43   80 1    
    74   44   82 1    
    75   44   81 1    
    76   44   45 1    
    77   45   46 1    
    78   45   83 1    
    79   45   84 1    
    80   46   86 1    
    81   46   47 1    
    82   46   85 1    
    83   47   87 1    
    84   47   48 am   BACKBONE|DICT|INTERRES
    85   48   50 1    
    86   48   49 2    
    87   50   57 ar   
    88   50   51 ar   
    89   51   53 ar   
    90   51   52 1    
    91   53   55 ar   
    92   53   54 1    
    93   55   56 ar   
    94   55   88 1    
    95   56   89 1    
    96   56   57 ar   
    97   57   90 1    
@<TRIPOS>SUBSTRUCTURE
     1 UNK         1 GROUP             0       ****    0 ROOT    
@<TRIPOS>MOLECULE
038_c1
90   98    1
SMALL
USER_CHARGES


@<TRIPOS>ATOM
      1 Fe1        -1.5650   -0.5932    1.3914 Fe        1 UNK         0.0000 
      2 C2         -1.8998    6.4468   -4.1767 C.ar      1 UNK         0.0000 
      3 C3         -2.4474    7.6425   -4.7450 C.ar      1 UNK         0.0000 
      4 C4         -2.1503    8.9083   -4.2096 C.ar      1 UNK         0.0000 
      5 C5         -1.2752    9.0045   -3.1309 C.ar      1 UNK         0.0000 
      6 C6         -0.7229    7.8226   -2.6026 C.ar      1 UNK         0.0000 
      7 C7         -1.0163    6.5363   -3.0646 C.ar      1 UNK         0.0000 
      8 N8          0.1058    7.7787   -1.5611 N.pl3     1 UNK         0.0000 
      9 H9          0.4541    8.6109   -1.0310 H         1 UNK         0.0000 
     10 C10         0.3449    6.4763   -1.2887 C.ar      1 UNK         0.0000 
     11 C11        -0.3311    5.6002   -2.1695 C.ar      1 UNK         0.0000 
     12 C12        -0.4537    4.0017   -1.8692 C.3       1 UNK         0.0000 
     13 C13        -0.5265    2.3574   -1.4474 C.3       1 UNK         0.0000 
     14 H14        -0.9817    1.9288   -2.3641 H         1 UNK         0.0000 
     15 C15        -1.6671    2.2565   -0.3807 C.2       1 UNK         0.0000 
     16 O16        -1.9343    1.1799    0.3564 O.co2     1 UNK         0.0000 
     17 O17        -2.4610    3.1783   -0.2625 O.co2     1 UNK         0.0000 
     18 N18         0.7104    1.4350   -1.2542 N.am      1 UNK         0.0000 
     19 C19         0.9364    0.1635   -0.5768 C.2       1 UNK         0.0000 
     20 O20         0.1124   -0.2977    0.2213 O.co2     1 UNK         0.0000 
     21 C21         2.3140   -0.7122   -0.7580 C.2       1 UNK         0.0000 
     22 C22         3.3730   -1.0697    0.4830 C.2       1 UNK         0.0000 
     23 C23         3.8422   -0.2571    1.8586 C.2       1 UNK         0.0000 
     24 C24         4.3237   -0.9501    3.2738 C.3       1 UNK         0.0000 
     25 C25         3.8799   -0.8239    4.8184 C.3       1 UNK         0.0000 
     26 N26         2.4767   -0.6451    5.1428 N.am      1 UNK         0.0000 
     27 C27         1.5093   -1.6029    5.2345 C.2       1 UNK         0.0000 
     28 O28         1.7554   -2.7845    5.0517 O.2       1 UNK         0.0000 
     29 C29         0.1268   -1.1062    5.4318 C.ar      1 UNK         0.0000 
     30 C30        -0.6988   -0.9077    4.3099 C.ar      1 UNK         0.0000 
     31 O31        -0.5615   -1.3683    3.0700 O.co2     1 UNK         0.0000 
     32 C32        -1.7786   -0.1582    4.3624 C.ar      1 UNK         0.0000 
     33 O33        -2.2477    0.0521    3.1327 O.co2     1 UNK         0.0000 
     34 C34        -2.2731    0.3537    5.5648 C.ar      1 UNK         0.0000 
     35 C35        -1.5483    0.1009    6.7421 C.ar      1 UNK         0.0000 
     36 C36        -0.3182   -0.5886    6.6724 C.ar      1 UNK         0.0000 
     37 N37         2.4849   -1.6961   -1.9838 N.am      1 UNK         0.0000 
     38 C38         2.6471   -2.6191   -3.1386 C.2       1 UNK         0.0000 
     39 O39         3.2999   -2.1218   -4.0577 O.2       1 UNK         0.0000 
     40 C40         2.4306   -4.2497   -3.5972 C.3       1 UNK         0.0000 
     41 H41         3.2752   -4.6365   -2.9803 H         1 UNK         0.0000 
     42 N42         2.9285   -4.4433   -5.0181 N.4       1 UNK         0.0000 
     43 H43         2.1485   -4.3647   -5.7105 H         1 UNK         0.0000 
     44 H44         3.7084   -3.8279   -5.3447 H         1 UNK         0.0000 
     45 H45         3.3721   -5.3844   -5.1649 H         1 UNK         0.0000 
     46 C46         1.4743   -5.5769   -3.3548 C.3       1 UNK         0.0000 
     47 C47         0.2036   -6.1680   -4.1651 C.3       1 UNK         0.0000 
     48 C48        -0.7136   -7.1442   -3.3221 C.3       1 UNK         0.0000 
     49 C49        -2.1860   -6.8124   -2.9288 C.3       1 UNK         0.0000 
     50 N50        -2.5839   -5.6024   -2.2060 N.am      1 UNK         0.0000 
     51 C51        -2.2062   -5.1276   -0.9712 C.2       1 UNK         0.0000 
     52 O52        -1.2329   -5.5756   -0.3858 O.2       1 UNK         0.0000 
     53 C53        -3.1280   -4.1167   -0.3225 C.ar      1 UNK         0.0000 
     54 C54        -2.8488   -2.8488    0.3033 C.ar      1 UNK         0.0000 
     55 O55        -1.8234   -2.0456    0.6158 O.co2     1 UNK         0.0000 
     56 C56        -3.7081   -2.1132    0.6588 C.ar      1 UNK         0.0000 
     57 O57        -2.9352   -1.0796    0.9524 O.co2     1 UNK         0.0000 
     58 C58        -5.0804   -2.3438    0.6624 C.ar      1 UNK         0.0000 
     59 C59        -5.4919   -3.5825    0.1561 C.ar      1 UNK         0.0000 
     60 C60        -4.5169   -4.4601   -0.3636 C.ar      1 UNK         0.0000 
     61 H61        -2.1753    5.5039   -4.6170 H         1 UNK         0.0000 
     62 H62        -3.1209    7.6122   -5.5966 H         1 UNK         0.0000 
     63 H63        -2.5957    9.8148   -4.6252 H         1 UNK         0.0000 
     64 H64        -1.0541    9.9822   -2.7077 H         1 UNK         0.0000 
     65 H65         0.9410    6.1802   -0.4416 H         1 UNK         0.0000 
     66 H66        -1.5274    4.0706   -2.1560 H         1 UNK         0.0000 
     67 H67        -0.1967    4.1979   -0.8075 H         1 UNK         0.0000 
     68 H68         1.4741    1.7108   -1.8905 H         1 UNK         0.0000 
     69 H69         5.2956   -0.4208    3.4668 H         1 UNK         0.0000 
     70 H70         4.7334   -1.9628    3.1027 H         1 UNK         0.0000 
     71 H71         4.3262   -1.6408    5.4417 H         1 UNK         0.0000 
     72 H72         4.3874    0.0643    5.2796 H         1 UNK         0.0000 
     73 H73         2.2042    0.3188    5.3948 H         1 UNK         0.0000 
     74 H74        -3.1801    0.9424    5.5859 H         1 UNK         0.0000 
     75 H75        -1.9071    0.4885    7.6876 H         1 UNK         0.0000 
     76 H76         0.2760   -0.6998    7.5724 H         1 UNK         0.0000 
     77 H77         2.1904   -6.3807   -3.7029 H         1 UNK         0.0000 
     78 H78         1.4961   -5.9633   -2.3215 H         1 UNK         0.0000 
     79 H79        -0.3246   -5.5422   -4.9138 H         1 UNK         0.0000 
     80 H80         0.6340   -6.9052   -4.9084 H         1 UNK         0.0000 
     81 H81        -0.9014   -8.0517   -3.9612 H         1 UNK         0.0000 
     82 H82        -0.1560   -7.5703   -2.4662 H         1 UNK         0.0000 
     83 H83        -2.7808   -6.8224   -3.8747 H         1 UNK         0.0000 
     84 H84        -2.5683   -7.6862   -2.3499 H         1 UNK         0.0000 
     85 H85        -3.3666   -5.1061   -2.6609 H         1 UNK         0.0000 
     86 H86        -5.7856   -1.6090    1.0265 H         1 UNK         0.0000 
     87 H87        -6.5410   -3.8477    0.1344 H         1 UNK         0.0000 
     88 H88        -4.8470   -5.4040   -0.7817 H         1 UNK         0.0000 
     89 H89         3.8478    0.8228    1.8724 H         1 UNK         0.0000 
     90 H90         3.7882   -2.0419    0.2620 H         1 UNK         0.0000 
@<TRIPOS>BOND
     1    1   16 nc   
     2    1   20 nc   
     3    1   31 nc   
     4    1   33 nc   
     5    1   55 nc   
     6    1   57 nc   
     7    2    7 ar   
     8    2    3 ar   
     9    2   61 1    
    10    3    4 ar   
    11    3   62 1    
    12    4    5 ar   
    13    4   63 1    
    14    5   64 1    
    15    5    6 ar   
    16    6    8 ar   
    17    6    7 ar   
    18    7   11 ar   
    19    8   10 ar   
    20    8    9 1    
    21   10   65 1    
    22   10   11 ar   
    23   11   12 1    
    24   12   13 1    
    25   12   67 1    
    26   12   66 1    
    27   13   14 1    
    28   13   18 1    
    29   13   15 1    
    30   15   17 2    
    31   15   16 1    
    32   18   19 am   BACKBONE|DICT|INTERRES
    33   18   68 1    
    34   19   20 2    
    35   19   21 1    
    36   21   22 1    
    37   21   37 2    
    38   22   23 2    
    39   22   90 1    
    40   23   24 1    
    41   23   89 1    
    42   24   69 1    
    43   24   25 1    
    44   24   70 1    
    45   25   26 1    
    46   25   72 1    
    47   25   71 1    
    48   26   27 am   BACKBONE|DICT|INTERRES
    49   26   73 1    
    50   27   29 1    
    51   27   28 2    
    52   29   36 ar   
    53   29   30 ar   
    54   30   32 ar   
    55   30   31 1    
    56   32   34 ar   
    57   32   33 1    
    58   34   74 1    
    59   34   35 ar   
    60   35   75 1    
    61   35   36 ar   
    62   36   76 1    
    63   37   38 am   BACKBONE|DICT|INTERRES
    64   38   39 2    
    65   38   40 1    
    66   40   46 1    
    67   40   41 1    
    68   40   42 1    
    69   42   43 1    
    70   42   44 1    
    71   42   45 1    
    72   46   78 1    
    73   46   47 1    
    74   46   77 1    
    75   47   48 1    
    76   47   79 1    
    77   47   80 1    
    78   48   49 1    
    79   48   82 1    
    80   48   81 1    
    81   49   84 1    
    82   49   50 1    
    83   49   83 1    
    84   50   51 am   BACKBONE|DICT|INTERRES
    85   50   85 1    
    86   51   52 2    
    87   51   53 1    
    88   53   54 ar   
    89   53   60 ar   
    90   54   55 1    
    91   54   56 ar   
    92   56   58 ar   
    93   56   57 1    
    94   58   86 1    
    95   58   59 ar   
    96   59   60 ar   
    97   59   87 1    
    98   60   88 1    
@<TRIPOS>SUBSTRUCTURE
     1 UNK         1 GROUP             0       ****    0 ROOT    
@<TRIPOS>MOLECULE
050_c1
100   108    1
SMALL
USER_CHARGES


@<TRIPOS>ATOM
      1 Fe1         0.2394    0.9696    1.1664 Fe        1 UNK         0.0000 
      2 O2         -0.8630   -0.3561    1.5763 O.co2     1 UNK         0.0000 
      3 C3         -0.5365   -1.6637    1.5578 C.ar      1 UNK         0.0000 
      4 C4         -1.3790   -2.7555    1.3136 C.ar      1 UNK         0.0000 
      5 C5         -0.8051   -4.0535    1.1590 C.ar      1 UNK         0.0000 
      6 C6          0.6210   -4.1374    1.2592 C.ar      1 UNK         0.0000 
      7 C7          1.4029   -3.0097    1.5633 C.ar      1 UNK         0.0000 
      8 C8          0.7564   -1.7975    1.7172 C.ar      1 UNK         0.0000 
      9 O9          1.2947   -0.6052    1.9393 O.co2     1 UNK         0.0000 
     10 C10         1.2970   -5.4093    0.9033 C.3       1 UNK         0.0000 
     11 C11         0.5703   -5.9638   -0.3227 C.3       1 UNK         0.0000 
     12 N12         0.4588   -5.0069   -1.4348 N.am      1 UNK         0.0000 
     13 C13         1.0960   -5.1382   -2.6326 C.2       1 UNK         0.0000 
     14 O14         1.9461   -6.0047   -2.7845 O.2       1 UNK         0.0000 
     15 C15         0.6878   -4.2549   -3.8142 C.3       1 UNK         0.0000 
     16 N16         0.5510   -2.8412   -3.4668 N.am      1 UNK         0.0000 
     17 C17         1.5340   -2.0109   -3.0128 C.2       1 UNK         0.0000 
     18 O18         2.6752   -2.4214   -2.8591 O.2       1 UNK         0.0000 
     19 C19         1.1783   -0.5808   -2.6017 C.3       1 UNK         0.0000 
     20 C20         1.3901   -0.5102   -1.0840 C.3       1 UNK         0.0000 
     21 O21         1.1528    0.7529   -0.4999 O.co2     1 UNK         0.0000 
     22 N22         1.9872    0.4204   -3.2846 N.am      1 UNK         0.0000 
     23 C23         1.6933    1.7620   -3.3305 C.2       1 UNK         0.0000 
     24 O24         2.4940    2.5066   -3.8745 O.2       1 UNK         0.0000 
     25 C25         0.3908    2.3754   -2.7792 C.3       1 UNK         0.0000 
     26 C26        -0.4925    2.9809   -3.9035 C.3       1 UNK         0.0000 
     27 O27        -0.8077    1.9729   -4.8310 O.3       1 UNK         0.0000 
     28 C28         0.1081    4.1837   -4.6447 C.3       1 UNK         0.0000 
     29 N29         0.6506    3.3848   -1.7479 N.am      1 UNK         0.0000 
     30 C30         0.0489    3.3599   -0.5136 C.2       1 UNK         0.0000 
     31 O31        -0.6768    2.4099   -0.1961 O.co2     1 UNK         0.0000 
     32 C32         0.1760    4.4877    0.5060 C.3       1 UNK         0.0000 
     33 C33         1.1880    5.6561    0.3452 C.3       1 UNK         0.0000 
     34 O34         1.0898    6.2498   -0.9233 O.3       1 UNK         0.0000 
     35 C35         2.6906    5.4099    0.7117 C.3       1 UNK         0.0000 
     36 C36         2.9095    4.9523    2.1983 C.3       1 UNK         0.0000 
     37 O37         3.9754    5.6762    2.7630 O.3       1 UNK         0.0000 
     38 C38         3.2064    3.4335    2.4769 C.3       1 UNK         0.0000 
     39 N39         2.4771    3.0693    3.6684 N.2       1 UNK         0.0000 
     40 C40         1.4823    2.3423    3.3119 C.2       1 UNK         0.0000 
     41 O41         1.4843    1.9785    2.0111 O.3       1 UNK         0.0000 
     42 C42         2.6578    2.4435    1.4574 C.3       1 UNK         0.0000 
     43 C43         0.3446    2.0014    4.1757 C.ar      1 UNK         0.0000 
     44 C44        -0.8729    1.6604    3.5486 C.ar      1 UNK         0.0000 
     45 O45        -0.9556    1.6374    2.1678 O.co2     1 UNK         0.0000 
     46 C46        -1.9989    1.3772    4.3379 C.ar      1 UNK         0.0000 
     47 C47        -1.9117    1.4272    5.7321 C.ar      1 UNK         0.0000 
     48 C48        -0.7069    1.7776    6.3487 C.ar      1 UNK         0.0000 
     49 C49         0.4184    2.0760    5.5742 C.ar      1 UNK         0.0000 
     50 C50         1.5361   -4.4680   -5.0834 C.3       1 UNK         0.0000 
     51 O51         2.8766   -4.1305   -4.8655 O.3       1 UNK         0.0000 
     52 C52        -0.8521   -6.3454    0.1462 C.3       1 UNK         0.0000 
     53 N53        -1.6034   -5.2534    0.8651 N.4       1 UNK         0.0000 
     54 C54        -2.0162   -5.7523    2.1880 C.3       1 UNK         0.0000 
     55 C55        -2.8374   -4.9559    0.1151 C.3       1 UNK         0.0000 
     56 H56        -2.4324   -2.5580    1.2088 H         1 UNK         0.0000 
     57 H57         2.4826   -3.0639    1.6287 H         1 UNK         0.0000 
     58 H58         2.3746   -5.2431    0.6845 H         1 UNK         0.0000 
     59 H59         1.2234   -6.1381    1.7405 H         1 UNK         0.0000 
     60 H60         1.1009   -6.8831   -0.6559 H         1 UNK         0.0000 
     61 H61        -0.2028   -4.2227   -1.3420 H         1 UNK         0.0000 
     62 H62        -0.3368   -4.6004   -4.0820 H         1 UNK         0.0000 
     63 H63        -0.4032   -2.4560   -3.5460 H         1 UNK         0.0000 
     64 H64         0.1102   -0.4250   -2.8553 H         1 UNK         0.0000 
     65 H65         2.4141   -0.8497   -0.7997 H         1 UNK         0.0000 
     66 H66         0.6703   -1.2355   -0.6797 H         1 UNK         0.0000 
     67 H67         2.8411    0.0997   -3.7684 H         1 UNK         0.0000 
     68 H68        -0.2512    1.5853   -2.3569 H         1 UNK         0.0000 
     69 H69        -1.4273    3.3333   -3.4031 H         1 UNK         0.0000 
     70 H70        -1.7079    2.1805   -5.1954 H         1 UNK         0.0000 
     71 H71         1.0216    3.9058   -5.2056 H         1 UNK         0.0000 
     72 H72        -0.6313    4.5639   -5.3810 H         1 UNK         0.0000 
     73 H73         0.3390    5.0106   -3.9428 H         1 UNK         0.0000 
     74 H74         1.2513    4.1761   -2.0049 H         1 UNK         0.0000 
     75 H75         0.3222    4.0649    1.5136 H         1 UNK         0.0000 
     76 H76        -0.8395    4.9391    0.5360 H         1 UNK         0.0000 
     77 H77         0.8699    6.4136    1.1030 H         1 UNK         0.0000 
     78 H78         0.2511    6.7812   -0.9349 H         1 UNK         0.0000 
     79 H79         3.2714    4.8123   -0.0194 H         1 UNK         0.0000 
     80 H80         3.1273    6.4304    0.6251 H         1 UNK         0.0000 
     81 H81         1.9793    5.2389    2.7471 H         1 UNK         0.0000 
     82 H82         3.6223    6.5627    3.0395 H         1 UNK         0.0000 
     83 H83         4.3044    3.2602    2.5363 H         1 UNK         0.0000 
     84 H84         2.5385    2.8729    0.4569 H         1 UNK         0.0000 
     85 H85         3.3353    1.5649    1.3743 H         1 UNK         0.0000 
     86 H86        -2.9402    1.1153    3.8714 H         1 UNK         0.0000 
     87 H87        -2.7817    1.2015    6.3353 H         1 UNK         0.0000 
     88 H88        -0.6472    1.8231    7.4284 H         1 UNK         0.0000 
     89 H89         1.3429    2.3550    6.0640 H         1 UNK         0.0000 
     90 H90         1.1156   -3.8404   -5.9010 H         1 UNK         0.0000 
     91 H91         1.4702   -5.5394   -5.3800 H         1 UNK         0.0000 
     92 H92         3.3444   -4.2936   -5.7251 H         1 UNK         0.0000 
     93 H93        -1.3853   -6.7054   -0.7649 H         1 UNK         0.0000 
     94 H94        -0.7491   -7.2533    0.7876 H         1 UNK         0.0000 
     95 H95        -2.6499   -6.6646    2.0999 H         1 UNK         0.0000 
     96 H96        -2.6073   -4.9916    2.7503 H         1 UNK         0.0000 
     97 H97        -1.1334   -6.0181    2.8146 H         1 UNK         0.0000 
     98 H98        -2.5958   -4.5252   -0.8811 H         1 UNK         0.0000 
     99 H99        -3.5195   -4.2617    0.6462 H         1 UNK         0.0000 
    100 H100       -3.4391   -5.8794   -0.0483 H         1 UNK         0.0000 
@<TRIPOS>BOND
     1    1    2 nc   
     2    1    9 nc   
     3    1   21 nc   
     4    1   31 nc   
     5    1   41 nc   
     6    1   45 nc   
     7    2    3 1    
     8    3    8 ar   
     9    3    4 ar   
    10    4    5 ar   
    11    4   56 1    
    12    5    6 ar   
    13    5   53 1    
    14    6    7 ar   
    15    6   10 1    
    16    7   57 1    
    17    7    8 ar   
    18    8    9 1    
    19   10   59 1    
    20   10   11 1    
    21   10   58 1    
    22   11   60 1    
    23   11   52 1    
    24   11   12 1    
    25   12   61 1    
    26   12   13 am   BACKBONE|DICT|INTERRES
    27   13   14 2    
    28   13   15 1    
    29   15   62 1    
    30   15   16 1    
    31   15   50 1    
    32   16   17 am   BACKBONE|DICT|INTERRES
    33   16   63 1    
    34   17   18 2    
    35   17   19 1    
    36   19   64 1    
    37   19   20 1    
    38   19   22 1    
    39   20   65 1    
    40   20   66 1    
    41   20   21 1    
    42   22   23 am   BACKBONE|DICT|INTERRES
    43   22   67 1    
    44   23   25 1    
    45   23   24 2    
    46   25   68 1    
    47   25   29 1    
    48   25   26 1    
    49   26   69 1    
    50   26   27 1    
    51   26   28 1    
    52   27   70 1    
    53   28   73 1    
    54   28   71 1    
    55   28   72 1    
    56   29   30 am   BACKBONE|DICT|INTERRES
    57   29   74 1    
    58   30   31 2    
    59   30   32 1    
    60   32   76 1    
    61   32   75 1    
    62   32   33 1    
    63   33   35 1    
    64   33   77 1    
    65   33   34 1    
    66   34   78 1    
    67   35   36 1    
    68   35   79 1    
    69   35   80 1    
    70   36   38 1    
    71   36   81 1    
    72   36   37 1    
    73   37   82 1    
    74   38   83 1    
    75   38   39 1    
    76   38   42 1    
    77   39   40 2    
    78   40   43 1    
    79   40   41 1    
    80   41   42 1    
    81   42   84 1    
    82   42   85 1    
    83   43   49 ar   
    84   43   44 ar   
    85   44   46 ar   
    86   44   45 1    
    87   46   47 ar   
    88   46   86 1    
    89   47   87 1    
    90   47   48 ar   
    91   48   88 1    
    92   48   49 ar   
    93   49   89 1    
    94   50   51 1    
    95   50   90 1    
    96   50   91 1    
    97   51   92 1    
    98   52   94 1    
    99   52   53 1    
   100   52   93 1    
   101   53   54 1    
   102   53   55 1    
   103   54   96 1    
   104   54   97 1    
   105   54   95 1    
   106   55   99 1    
   107   55   98 1    
   108   55  100 1    
@<TRIPOS>SUBSTRUCTURE
     1 UNK         1 GROUP             0       ****    0 ROOT    
@<TRIPOS>MOLECULE
054_A_c1
145   149    1
SMALL
USER_CHARGES


@<TRIPOS>ATOM
      1 Fe1        -0.9036    0.5143    2.8281 Fe        1 UNK         0.0000 
      2 O2         -1.4336   -0.6818    4.6471 O.co2     1 UNK         0.0000 
      3 C3         -1.2373   -0.0390    5.6729 C.2       1 UNK         0.0000 
      4 C4         -1.1595   -0.7614    7.0030 C.3       1 UNK         0.0000 
      5 N5         -1.0447    1.2826    5.4844 N.am      1 UNK         0.0000 
      6 O6         -1.1398    1.7721    4.2486 O.co2     1 UNK         0.0000 
      7 C7         -0.7116    2.2327    6.5642 C.3       1 UNK         0.0000 
      8 C8         -0.3296    3.6938    6.1812 C.3       1 UNK         0.0000 
      9 C9          1.0602    3.8621    5.5152 C.3       1 UNK         0.0000 
     10 C10         1.5907    5.3319    5.4678 C.3       1 UNK         0.0000 
     11 H11         0.8261    5.9168    4.9588 H         1 UNK         0.0000 
     12 C12         1.7589    5.9276    6.8883 C.2       1 UNK         0.0000 
     13 O13         2.6658    5.2193    7.6102 O.3       1 UNK         0.0000 
     14 O14         1.1425    6.8638    7.3387 O.2       1 UNK         0.0000 
     15 N15         2.8571    5.4471    4.7064 N.am      1 UNK         0.0000 
     16 C16         3.1360    6.4332    3.8299 C.2       1 UNK         0.0000 
     17 O17         2.3513    7.3449    3.5803 O.2       1 UNK         0.0000 
     18 C18         4.4770    6.3391    3.0518 C.3       1 UNK         0.0000 
     19 H19         4.5225    5.3337    2.6364 H         1 UNK         0.0000 
     20 C20         5.7081    6.4942    3.9691 C.3       1 UNK         0.0000 
     21 O21         5.7583    7.7240    4.6665 O.3       1 UNK         0.0000 
     22 N22         4.5890    7.3368    1.9642 N.am      1 UNK         0.0000 
     23 C23         4.4658    7.1940    0.6225 C.2       1 UNK         0.0000 
     24 O24         4.5847    8.1497   -0.1388 O.2       1 UNK         0.0000 
     25 C25         4.1091    5.8186    0.0291 C.3       1 UNK         0.0000 
     26 H26         4.8555    5.1473    0.4470 H         1 UNK         0.0000 
     27 C27         2.7067    5.4284    0.4999 C.3       1 UNK         0.0000 
     28 C28         2.5728    3.9248    0.7212 C.3       1 UNK         0.0000 
     29 C29         1.3701    3.6973    1.6248 C.3       1 UNK         0.0000 
     30 N30         1.0409    2.2949    1.8115 N.am      1 UNK         0.0000 
     31 O31        -0.1883    1.9850    1.3997 O.co2     1 UNK         0.0000 
     32 C32         1.6998    1.4427    2.6281 C.2       1 UNK         0.0000 
     33 O33         1.0605    0.4513    2.9658 O.co2     1 UNK         0.0000 
     34 C34         3.0907    1.6594    3.2213 C.3       1 UNK         0.0000 
     35 N35         4.1460    5.7346   -1.4335 N.am      1 UNK         0.0000 
     36 C36         4.7061    4.7138   -2.1029 C.2       1 UNK         0.0000 
     37 O37         5.4344    3.8788   -1.5662 O.2       1 UNK         0.0000 
     38 C38         4.4368    4.5663   -3.6176 C.3       1 UNK         0.0000 
     39 H39         5.4378    4.6000   -4.0454 H         1 UNK         0.0000 
     40 C40         3.5794    5.6820   -4.2901 C.3       1 UNK         0.0000 
     41 C41         3.3498    5.5235   -5.8216 C.3       1 UNK         0.0000 
     42 C42         4.6203    5.5818   -6.6642 C.2       1 UNK         0.0000 
     43 O43         5.4983    4.7393   -6.5588 O.2       1 UNK         0.0000 
     44 N44         4.7283    6.5580   -7.5524 N.am      1 UNK         0.0000 
     45 N45         3.8889    3.2338   -3.9086 N.am      1 UNK         0.0000 
     46 C46         2.6600    2.7874   -3.5767 C.2       1 UNK         0.0000 
     47 O47         1.8380    3.4817   -2.9783 O.2       1 UNK         0.0000 
     48 C48         2.2796    1.3703   -4.0562 C.3       1 UNK         0.0000 
     49 H49         2.9851    0.6803   -3.5858 H         1 UNK         0.0000 
     50 C50         2.4096    1.2514   -5.5958 C.3       1 UNK         0.0000 
     51 O51         2.1026   -0.0603   -6.0383 O.3       1 UNK         0.0000 
     52 N52         0.8935    1.0390   -3.6931 N.am      1 UNK         0.0000 
     53 C53         0.5463   -0.0794   -3.0391 C.2       1 UNK         0.0000 
     54 O54         1.3976   -0.8098   -2.5331 O.2       1 UNK         0.0000 
     55 C55        -0.9549   -0.5140   -3.0693 C.3       1 UNK         0.0000 
     56 H56        -0.9425   -1.4385   -3.6426 H         1 UNK         0.0000 
     57 C57        -1.9676    0.3981   -3.8354 C.3       1 UNK         0.0000 
     58 O58        -1.6539    0.5646   -5.2166 O.3       1 UNK         0.0000 
     59 N59        -1.5191   -0.9179   -1.7696 N.am      1 UNK         0.0000 
     60 C60        -1.2040   -2.0712   -1.1452 C.2       1 UNK         0.0000 
     61 O61        -0.3344   -2.8435   -1.5645 O.2       1 UNK         0.0000 
     62 C62        -2.1028   -2.5348    0.0339 C.3       1 UNK         0.0000 
     63 H63        -3.1245   -2.4666   -0.3184 H         1 UNK         0.0000 
     64 C64        -2.0145   -1.7414    1.3764 C.3       1 UNK         0.0000 
     65 H65        -2.3826   -2.4474    2.1329 H         1 UNK         0.0000 
     66 O66        -0.7781   -1.2292    1.8015 O.co2     1 UNK         0.0000 
     67 C67        -3.1011   -0.6375    1.5246 C.2       1 UNK         0.0000 
     68 O68        -2.5936    0.3600    2.1302 O.co2     1 UNK         0.0000 
     69 O69        -4.2869   -0.8300    1.1814 O.co2     1 UNK         0.0000 
     70 N70        -1.7929   -3.9387    0.2911 N.am      1 UNK         0.0000 
     71 C71        -2.5695   -4.9721   -0.0393 C.2       1 UNK         0.0000 
     72 O72        -3.6870   -4.8305   -0.5416 O.2       1 UNK         0.0000 
     73 C73        -2.0173   -6.3756    0.2283 C.3       1 UNK         0.0000 
     74 C74        -2.9882   -7.4793   -0.2434 C.3       1 UNK         0.0000 
     75 C75        -2.4190   -8.8841   -0.0325 C.3       1 UNK         0.0000 
     76 C76        -3.3105   -9.9586   -0.6116 C.2       1 UNK         0.0000 
     77 C77        -3.8153  -10.9769    0.0997 C.2       1 UNK         0.0000 
     78 C78        -4.6500  -12.0825   -0.4941 C.3       1 UNK         0.0000 
     79 C79        -6.0224  -12.2183    0.1730 C.3       1 UNK         0.0000 
     80 C80        -6.7768  -13.4159   -0.4180 C.3       1 UNK         0.0000 
     81 C81        -8.1441  -13.6315    0.2451 C.3       1 UNK         0.0000 
     82 C82        -8.8555  -14.8636   -0.3391 C.3       1 UNK         0.0000 
     83 C83       -10.2194  -15.1025    0.3215 C.3       1 UNK         0.0000 
     84 H84        -0.8986   -0.0963    7.8182 H         1 UNK         0.0000 
     85 H85        -2.1081   -1.2468    7.2297 H         1 UNK         0.0000 
     86 H86        -0.3974   -1.5340    6.9334 H         1 UNK         0.0000 
     87 H87        -1.5592    2.2643    7.2647 H         1 UNK         0.0000 
     88 H88         0.1321    1.7976    7.1140 H         1 UNK         0.0000 
     89 H89        -1.1089    4.1194    5.5449 H         1 UNK         0.0000 
     90 H90        -0.3665    4.2688    7.1055 H         1 UNK         0.0000 
     91 H91         0.9691    3.5016    4.4974 H         1 UNK         0.0000 
     92 H92         1.7907    3.2044    5.9942 H         1 UNK         0.0000 
     93 H93         3.5709    4.7779    4.9544 H         1 UNK         0.0000 
     94 H94         5.7144    5.6882    4.7048 H         1 UNK         0.0000 
     95 H95         6.6267    6.3870    3.3864 H         1 UNK         0.0000 
     96 H96         6.2036    8.3744    4.1157 H         1 UNK         0.0000 
     97 H97         4.6337    8.2858    2.3015 H         1 UNK         0.0000 
     98 H98         2.4345    5.9416    1.4154 H         1 UNK         0.0000 
     99 H99         1.9422    5.7798   -0.1972 H         1 UNK         0.0000 
    100 H100        2.4261    3.3959   -0.2233 H         1 UNK         0.0000 
    101 H101        3.4630    3.5090    1.1921 H         1 UNK         0.0000 
    102 H102        0.5201    4.2392    1.1848 H         1 UNK         0.0000 
    103 H103        1.4731    4.2120    2.5822 H         1 UNK         0.0000 
    104 H104        3.1148    2.5316    3.8800 H         1 UNK         0.0000 
    105 H105        3.3546    0.7969    3.8330 H         1 UNK         0.0000 
    106 H106        3.8615    1.7433    2.4480 H         1 UNK         0.0000 
    107 H107        3.5440    6.3861   -1.9128 H         1 UNK         0.0000 
    108 H108        2.5975    5.7340   -3.8093 H         1 UNK         0.0000 
    109 H109        4.0362    6.6554   -4.1045 H         1 UNK         0.0000 
    110 H110        2.6325    6.2759   -6.1684 H         1 UNK         0.0000 
    111 H111        2.8656    4.5703   -6.0327 H         1 UNK         0.0000 
    112 H112        4.0058    7.2559   -7.6608 H         1 UNK         0.0000 
    113 H113        5.5769    6.5962   -8.1023 H         1 UNK         0.0000 
    114 H114        4.5390    2.6206   -4.3788 H         1 UNK         0.0000 
    115 H115        3.4340    1.4624   -5.9018 H         1 UNK         0.0000 
    116 H116        1.7779    1.9867   -6.0967 H         1 UNK         0.0000 
    117 H117        2.0501   -0.0805   -6.9958 H         1 UNK         0.0000 
    118 H118        0.1702    1.6151   -4.0916 H         1 UNK         0.0000 
    119 H119       -2.0363    1.3788   -3.3686 H         1 UNK         0.0000 
    120 H120       -2.9708   -0.0327   -3.7686 H         1 UNK         0.0000 
    121 H121       -2.4101    0.9287   -5.6853 H         1 UNK         0.0000 
    122 H122       -2.2214   -0.3339   -1.3399 H         1 UNK         0.0000 
    123 H123       -0.8360   -4.0461    0.6017 H         1 UNK         0.0000 
    124 H124       -1.0568   -6.4852   -0.2834 H         1 UNK         0.0000 
    125 H125       -1.8242   -6.4835    1.2974 H         1 UNK         0.0000 
    126 H126       -3.2161   -7.3378   -1.3045 H         1 UNK         0.0000 
    127 H127       -3.9465   -7.3902    0.2769 H         1 UNK         0.0000 
    128 H128       -1.4506   -8.9733   -0.5319 H         1 UNK         0.0000 
    129 H129       -2.2759   -9.0692    1.0363 H         1 UNK         0.0000 
    130 H130       -3.5219   -9.8704   -1.6713 H         1 UNK         0.0000 
    131 H131       -3.6184  -11.0507    1.1626 H         1 UNK         0.0000 
    132 H132       -4.0772  -13.0071   -0.3741 H         1 UNK         0.0000 
    133 H133       -4.7724  -11.9053   -1.5674 H         1 UNK         0.0000 
    134 H134       -6.6005  -11.3001    0.0381 H         1 UNK         0.0000 
    135 H135       -5.9040  -12.3453    1.2530 H         1 UNK         0.0000 
    136 H136       -6.1711  -14.3194   -0.3015 H         1 UNK         0.0000 
    137 H137       -6.9085  -13.2760   -1.4950 H         1 UNK         0.0000 
    138 H138       -8.7647  -12.7396    0.1115 H         1 UNK         0.0000 
    139 H139       -8.0138  -13.7529    1.3253 H         1 UNK         0.0000 
    140 H140       -8.2222  -15.7474   -0.2124 H         1 UNK         0.0000 
    141 H141       -8.9808  -14.7387   -1.4192 H         1 UNK         0.0000 
    142 H142      -10.8833  -14.2477    0.1747 H         1 UNK         0.0000 
    143 H143      -10.7057  -15.9829   -0.1039 H         1 UNK         0.0000 
    144 H144      -10.1131  -15.2640    1.3965 H         1 UNK         0.0000 
    145 H145        2.6495    5.6474    8.4663 H         1 UNK         0.0000 
@<TRIPOS>BOND
     1    1    2 nc   
     2    1    6 nc   
     3    1   31 nc   
     4    1   33 nc   
     5    1   66 nc   
     6    1   68 nc   
     7    2    3 2    
     8    3    4 1    
     9    3    5 am   BACKBONE|DICT|INTERRES
    10    4   85 1    
    11    4   84 1    
    12    4   86 1    
    13    5    7 1    
    14    5    6 1    
    15    7   88 1    
    16    7   87 1    
    17    7    8 1    
    18    8   90 1    
    19    8    9 1    
    20    8   89 1    
    21    9   92 1    
    22    9   10 1    
    23    9   91 1    
    24   10   11 1    
    25   10   12 1    
    26   10   15 1    
    27   12   14 2    
    28   12   13 1    
    29   13  145 1    
    30   15   93 1    
    31   15   16 am   BACKBONE|DICT|INTERRES
    32   16   17 2    
    33   16   18 1    
    34   18   19 1    
    35   18   20 1    
    36   18   22 1    
    37   20   21 1    
    38   20   94 1    
    39   20   95 1    
    40   21   96 1    
    41   22   97 1    
    42   22   23 am   BACKBONE|DICT|INTERRES
    43   23   24 2    
    44   23   25 1    
    45   25   26 1    
    46   25   27 1    
    47   25   35 1    
    48   27   28 1    
    49   27   98 1    
    50   27   99 1    
    51   28  101 1    
    52   28   29 1    
    53   28  100 1    
    54   29   30 1    
    55   29  103 1    
    56   29  102 1    
    57   30   32 am   BACKBONE|DICT|INTERRES
    58   30   31 1    
    59   32   33 2    
    60   32   34 1    
    61   34  105 1    
    62   34  104 1    
    63   34  106 1    
    64   35   36 am   BACKBONE|DICT|INTERRES
    65   35  107 1    
    66   36   37 2    
    67   36   38 1    
    68   38   39 1    
    69   38   40 1    
    70   38   45 1    
    71   40  109 1    
    72   40  108 1    
    73   40   41 1    
    74   41   42 1    
    75   41  110 1    
    76   41  111 1    
    77   42   43 2    
    78   42   44 am   BACKBONE|DICT|INTERRES
    79   44  112 1    
    80   44  113 1    
    81   45   46 am   BACKBONE|DICT|INTERRES
    82   45  114 1    
    83   46   47 2    
    84   46   48 1    
    85   48   52 1    
    86   48   49 1    
    87   48   50 1    
    88   50   51 1    
    89   50  115 1    
    90   50  116 1    
    91   51  117 1    
    92   52   53 am   BACKBONE|DICT|INTERRES
    93   52  118 1    
    94   53   55 1    
    95   53   54 2    
    96   55   56 1    
    97   55   59 1    
    98   55   57 1    
    99   57  120 1    
   100   57  119 1    
   101   57   58 1    
   102   58  121 1    
   103   59  122 1    
   104   59   60 am   BACKBONE|DICT|INTERRES
   105   60   62 1    
   106   60   61 2    
   107   62   63 1    
   108   62   70 1    
   109   62   64 1    
   110   64   67 1    
   111   64   66 1    
   112   64   65 1    
   113   67   68 1    
   114   67   69 2    
   115   70  123 1    
   116   70   71 am   BACKBONE|DICT|INTERRES
   117   71   73 1    
   118   71   72 2    
   119   73  125 1    
   120   73   74 1    
   121   73  124 1    
   122   74   75 1    
   123   74  127 1    
   124   74  126 1    
   125   75  129 1    
   126   75   76 1    
   127   75  128 1    
   128   76   77 2    
   129   76  130 1    
   130   77  131 1    
   131   77   78 1    
   132   78  132 1    
   133   78   79 1    
   134   78  133 1    
   135   79  135 1    
   136   79   80 1    
   137   79  134 1    
   138   80  136 1    
   139   80   81 1    
   140   80  137 1    
   141   81  139 1    
   142   81   82 1    
   143   81  138 1    
   144   82  140 1    
   145   82   83 1    
   146   82  141 1    
   147   83  144 1    
   148   83  142 1    
   149   83  143 1    
@<TRIPOS>SUBSTRUCTURE
     1 UNK         1 GROUP             0       ****    0 ROOT    
@<TRIPOS>MOLECULE
054_B_c1
146   150    1
SMALL
USER_CHARGES


@<TRIPOS>ATOM
      1 Fe1         0.0653    0.3727   -2.9182 Fe        1 UNK         0.0000 
      2 O2         -0.0132   -0.6293   -4.8265 O.co2     1 UNK         0.0000 
      3 C3         -0.0012    0.2366   -5.7170 C.2       1 UNK         0.0000 
      4 C4          0.6568   -0.0196   -7.0804 C.3       1 UNK         0.0000 
      5 N5         -0.5568    1.4316   -5.3998 N.am      1 UNK         0.0000 
      6 O6         -1.2442    1.5838   -4.2833 O.co2     1 UNK         0.0000 
      7 C7         -0.4852    2.6451   -6.2482 C.3       1 UNK         0.0000 
      8 C8         -0.7280    3.9983   -5.5362 C.3       1 UNK         0.0000 
      9 C9         -0.6246    5.2153   -6.4752 C.3       1 UNK         0.0000 
     10 C10        -0.8335    6.5623   -5.7495 C.3       1 UNK         0.0000 
     11 H11        -1.8248    6.5474   -5.2880 H         1 UNK         0.0000 
     12 C12        -0.7785    7.7223   -6.7648 C.2       1 UNK         0.0000 
     13 O13        -2.0017    8.2742   -6.9529 O.3       1 UNK         0.0000 
     14 O14         0.2249    8.0772   -7.3464 O.2       1 UNK         0.0000 
     15 N15         0.1987    6.7853   -4.7372 N.am      1 UNK         0.0000 
     16 C16        -0.0467    6.8405   -3.4244 C.2       1 UNK         0.0000 
     17 O17        -1.1595    6.6410   -2.9324 O.2       1 UNK         0.0000 
     18 C18         1.1583    7.1578   -2.5152 C.3       1 UNK         0.0000 
     19 H19         1.8797    6.3699   -2.6999 H         1 UNK         0.0000 
     20 C20         1.7926    8.5506   -2.7790 C.3       1 UNK         0.0000 
     21 O21         0.8256    9.5816   -2.6961 O.3       1 UNK         0.0000 
     22 N22         0.6697    7.1243   -1.1471 N.am      1 UNK         0.0000 
     23 C23         1.2193    6.9377    0.0555 C.2       1 UNK         0.0000 
     24 O24         0.5407    7.2445    1.0356 O.2       1 UNK         0.0000 
     25 C25         2.6952    6.4590    0.2883 C.3       1 UNK         0.0000 
     26 H26         3.2825    7.3667    0.1383 H         1 UNK         0.0000 
     27 C27         3.3334    5.3773   -0.6471 C.3       1 UNK         0.0000 
     28 C28         2.5450    4.0683   -0.9195 C.3       1 UNK         0.0000 
     29 C29         3.3175    3.0006   -1.7454 C.3       1 UNK         0.0000 
     30 N30         2.5580    1.7937   -2.1321 N.am      1 UNK         0.0000 
     31 O31         1.2367    1.8867   -2.1363 O.co2     1 UNK         0.0000 
     32 C32         3.0880    0.6578   -2.6457 C.2       1 UNK         0.0000 
     33 O33         2.2330   -0.1495   -3.0218 O.co2     1 UNK         0.0000 
     34 C34         4.5977    0.4433   -2.8033 C.3       1 UNK         0.0000 
     35 N35         2.9224    6.1416    1.7125 N.am      1 UNK         0.0000 
     36 C36         2.2415    5.2517    2.4621 C.2       1 UNK         0.0000 
     37 O37         1.4198    4.4570    2.0103 O.2       1 UNK         0.0000 
     38 C38         2.4256    5.3735    3.9919 C.3       1 UNK         0.0000 
     39 H39         2.0278    6.3608    4.2280 H         1 UNK         0.0000 
     40 C40         3.8965    5.3236    4.4689 C.3       1 UNK         0.0000 
     41 C41         4.0390    5.7125    5.9552 C.3       1 UNK         0.0000 
     42 C42         5.4788    5.7218    6.4573 C.2       1 UNK         0.0000 
     43 O43         6.4300    5.5034    5.7168 O.2       1 UNK         0.0000 
     44 N44         5.6597    6.0028    7.7412 N.am      1 UNK         0.0000 
     45 N45         1.6048    4.4364    4.7676 N.am      1 UNK         0.0000 
     46 C46         1.6634    3.0957    4.7555 C.2       1 UNK         0.0000 
     47 O47         2.4977    2.4408    4.1295 O.2       1 UNK         0.0000 
     48 C48         0.6217    2.3438    5.6034 C.3       1 UNK         0.0000 
     49 H49         1.1943    1.5931    6.1472 H         1 UNK         0.0000 
     50 C50        -0.1577    3.1812    6.6639 C.3       1 UNK         0.0000 
     51 O51         0.6459    3.9159    7.5771 O.3       1 UNK         0.0000 
     52 N52        -0.3296    1.6886    4.7030 N.am      1 UNK         0.0000 
     53 C53        -0.4935    0.3698    4.5754 C.2       1 UNK         0.0000 
     54 O54         0.1555   -0.4712    5.1979 O.2       1 UNK         0.0000 
     55 C55        -1.5610   -0.1075    3.5770 C.3       1 UNK         0.0000 
     56 H56        -2.0844   -0.9207    4.0834 H         1 UNK         0.0000 
     57 C57        -2.6456    0.9093    3.1306 C.3       1 UNK         0.0000 
     58 O58        -2.1371    2.0641    2.4916 O.3       1 UNK         0.0000 
     59 N59        -0.8834   -0.6398    2.4072 N.am      1 UNK         0.0000 
     60 C60        -1.3434   -1.6896    1.7149 C.2       1 UNK         0.0000 
     61 O61        -2.3680   -2.2898    2.0381 O.2       1 UNK         0.0000 
     62 C62        -0.4613   -2.1948    0.5311 C.3       1 UNK         0.0000 
     63 H63         0.5560   -1.8991    0.7981 H         1 UNK         0.0000 
     64 C64        -0.7156   -1.4802   -0.8106 C.2       1 UNK         0.0000 
     65 O65         0.1575   -1.2133   -1.6894 O.co2     1 UNK         0.0000 
     66 C66        -1.8748   -0.5078   -1.1680 C.2       1 UNK         0.0000 
     67 O67        -1.3902    0.2633   -2.0523 O.co2     1 UNK         0.0000 
     68 O68        -2.9941   -0.5689   -0.6336 O.co2     1 UNK         0.0000 
     69 N69        -0.3418   -3.6729    0.3964 N.am      1 UNK         0.0000 
     70 C70        -1.2809   -4.5821    0.0807 C.2       1 UNK         0.0000 
     71 O71        -2.3487   -4.3017   -0.4514 O.2       1 UNK         0.0000 
     72 C72        -0.8913   -6.0250    0.4118 C.3       1 UNK         0.0000 
     73 C73        -2.0012   -7.0931    0.3085 C.3       1 UNK         0.0000 
     74 C74        -1.4185   -8.4911    0.5881 C.3       1 UNK         0.0000 
     75 C75        -2.4146   -9.6610    0.4764 C.3       1 UNK         0.0000 
     76 C76        -1.7127  -10.9987    0.7821 C.3       1 UNK         0.0000 
     77 C77        -2.5981  -12.2470    0.6590 C.3       1 UNK         0.0000 
     78 C78        -3.7768  -12.2941    1.6495 C.3       1 UNK         0.0000 
     79 C79        -4.3349  -13.7109    1.8869 C.3       1 UNK         0.0000 
     80 C80        -4.8438  -14.4155    0.6154 C.3       1 UNK         0.0000 
     81 C81        -5.3445  -15.8445    0.8857 C.3       1 UNK         0.0000 
     82 C82        -5.7948  -16.5694   -0.3905 C.3       1 UNK         0.0000 
     83 H83         1.7182   -0.2513   -6.9897 H         1 UNK         0.0000 
     84 H84         0.1692   -0.8817   -7.5230 H         1 UNK         0.0000 
     85 H85         0.5512    0.7991   -7.7918 H         1 UNK         0.0000 
     86 H86        -1.2253    2.5525   -7.0407 H         1 UNK         0.0000 
     87 H87         0.4790    2.7134   -6.7491 H         1 UNK         0.0000 
     88 H88        -0.0352    4.0992   -4.7035 H         1 UNK         0.0000 
     89 H89        -1.7312    3.9864   -5.1103 H         1 UNK         0.0000 
     90 H90        -1.3776    5.1221   -7.2580 H         1 UNK         0.0000 
     91 H91         0.3403    5.2218   -6.9814 H         1 UNK         0.0000 
     92 H92         1.1048    7.0347   -5.0977 H         1 UNK         0.0000 
     93 H93         2.2470    8.6040   -3.7709 H         1 UNK         0.0000 
     94 H94         2.5907    8.7496   -2.0640 H         1 UNK         0.0000 
     95 H95         1.2437   10.4311   -2.8348 H         1 UNK         0.0000 
     96 H96        -0.3157    7.3541   -1.1450 H         1 UNK         0.0000 
     97 H97         4.2906    5.1061   -0.1960 H         1 UNK         0.0000 
     98 H98         3.6073    5.8406   -1.5940 H         1 UNK         0.0000 
     99 H99         2.2765    3.5796    0.0082 H         1 UNK         0.0000 
    100 H100        1.6155    4.3128   -1.4246 H         1 UNK         0.0000 
    101 H101        3.6716    3.4539   -2.6665 H         1 UNK         0.0000 
    102 H102        4.2238    2.7266   -1.2102 H         1 UNK         0.0000 
    103 H103        5.1051    0.5027   -1.8420 H         1 UNK         0.0000 
    104 H104        5.0323    1.1924   -3.4661 H         1 UNK         0.0000 
    105 H105        4.8075   -0.5350   -3.2323 H         1 UNK         0.0000 
    106 H106        3.5300    6.7851    2.1923 H         1 UNK         0.0000 
    107 H107        4.5169    5.9829    3.8643 H         1 UNK         0.0000 
    108 H108        4.3083    4.3266    4.3206 H         1 UNK         0.0000 
    109 H109        3.4720    5.0115    6.5678 H         1 UNK         0.0000 
    110 H110        3.6082    6.7009    6.1174 H         1 UNK         0.0000 
    111 H111        4.8787    6.1821    8.3494 H         1 UNK         0.0000 
    112 H112        6.5972    6.0115    8.1037 H         1 UNK         0.0000 
    113 H113        0.9358    4.8579    5.3938 H         1 UNK         0.0000 
    114 H114       -0.8352    3.8893    6.1844 H         1 UNK         0.0000 
    115 H115       -0.7760    2.5136    7.2627 H         1 UNK         0.0000 
    116 H116        0.1603    4.0022    8.4017 H         1 UNK         0.0000 
    117 H117       -0.7837    2.2561    3.9893 H         1 UNK         0.0000 
    118 H118       -3.2232    1.2237    3.9989 H         1 UNK         0.0000 
    119 H119       -3.3422    0.4461    2.4307 H         1 UNK         0.0000 
    120 H120       -2.6335    2.1630    1.6677 H         1 UNK         0.0000 
    121 H121       -0.0228   -0.1620    2.1942 H         1 UNK         0.0000 
    122 H122        0.4786   -4.0711    0.8256 H         1 UNK         0.0000 
    123 H123       -0.0808   -6.2928   -0.2636 H         1 UNK         0.0000 
    124 H124       -0.4895   -6.0404    1.4249 H         1 UNK         0.0000 
    125 H125       -2.4468   -7.0710   -0.6864 H         1 UNK         0.0000 
    126 H126       -2.7972   -6.8740    1.0226 H         1 UNK         0.0000 
    127 H127       -0.5951   -8.6760   -0.1047 H         1 UNK         0.0000 
    128 H128       -0.9855   -8.5033    1.5912 H         1 UNK         0.0000 
    129 H129       -2.8461   -9.6905   -0.5278 H         1 UNK         0.0000 
    130 H130       -3.2463   -9.5070    1.1687 H         1 UNK         0.0000 
    131 H131       -0.8650  -11.1112    0.1040 H         1 UNK         0.0000 
    132 H132       -1.2854  -10.9614    1.7852 H         1 UNK         0.0000 
    133 H133       -2.9737  -12.3288   -0.3608 H         1 UNK         0.0000 
    134 H134       -1.9627  -13.1188    0.8142 H         1 UNK         0.0000 
    135 H135       -3.4608  -11.8896    2.6123 H         1 UNK         0.0000 
    136 H136       -4.5718  -11.6354    1.2973 H         1 UNK         0.0000 
    137 H137       -3.5617  -14.3210    2.3555 H         1 UNK         0.0000 
    138 H138       -5.1466  -13.6522    2.6137 H         1 UNK         0.0000 
    139 H139       -5.6429  -13.8213    0.1682 H         1 UNK         0.0000 
    140 H140       -4.0420  -14.4603   -0.1234 H         1 UNK         0.0000 
    141 H141       -6.1718  -15.8141    1.5969 H         1 UNK         0.0000 
    142 H142       -4.5500  -16.4234    1.3612 H         1 UNK         0.0000 
    143 H143       -4.9783  -16.6516   -1.1088 H         1 UNK         0.0000 
    144 H144       -6.1354  -17.5801   -0.1643 H         1 UNK         0.0000 
    145 H145       -6.6178  -16.0439   -0.8752 H         1 UNK         0.0000 
    146 H146       -1.8902    8.9824   -7.5863 H         1 UNK         0.0000 
@<TRIPOS>BOND
     1    1    2 nc   
     2    1    6 nc   
     3    1   31 nc   
     4    1   33 nc   
     5    1   65 nc   
     6    1   67 nc   
     7    2    3 2    
     8    3    5 am   BACKBONE|DICT|INTERRES
     9    3    4 1    
    10    4   83 1    
    11    4   84 1    
    12    4   85 1    
    13    5    6 1    
    14    5    7 1    
    15    7    8 1    
    16    7   86 1    
    17    7   87 1    
    18    8   89 1    
    19    8   88 1    
    20    8    9 1    
    21    9   10 1    
    22    9   90 1    
    23    9   91 1    
    24   10   11 1    
    25   10   15 1    
    26   10   12 1    
    27   12   13 1    
    28   12   14 2    
    29   13  146 1    
    30   15   16 am   BACKBONE|DICT|INTERRES
    31   15   92 1    
    32   16   17 2    
    33   16   18 1    
    34   18   19 1    
    35   18   22 1    
    36   18   20 1    
    37   20   21 1    
    38   20   94 1    
    39   20   93 1    
    40   21   95 1    
    41   22   96 1    
    42   22   23 am   BACKBONE|DICT|INTERRES
    43   23   25 1    
    44   23   24 2    
    45   25   26 1    
    46   25   35 1    
    47   25   27 1    
    48   27   97 1    
    49   27   28 1    
    50   27   98 1    
    51   28   99 1    
    52   28   29 1    
    53   28  100 1    
    54   29  102 1    
    55   29   30 1    
    56   29  101 1    
    57   30   31 1    
    58   30   32 am   BACKBONE|DICT|INTERRES
    59   32   33 2    
    60   32   34 1    
    61   34  103 1    
    62   34  104 1    
    63   34  105 1    
    64   35  106 1    
    65   35   36 am   BACKBONE|DICT|INTERRES
    66   36   38 1    
    67   36   37 2    
    68   38   39 1    
    69   38   40 1    
    70   38   45 1    
    71   40   41 1    
    72   40  107 1    
    73   40  108 1    
    74   41  110 1    
    75   41   42 1    
    76   41  109 1    
    77   42   44 am   BACKBONE|DICT|INTERRES
    78   42   43 2    
    79   44  112 1    
    80   44  111 1    
    81   45  113 1    
    82   45   46 am   BACKBONE|DICT|INTERRES
    83   46   48 1    
    84   46   47 2    
    85   48   49 1    
    86   48   50 1    
    87   48   52 1    
    88   50  115 1    
    89   50   51 1    
    90   50  114 1    
    91   51  116 1    
    92   52   53 am   BACKBONE|DICT|INTERRES
    93   52  117 1    
    94   53   54 2    
    95   53   55 1    
    96   55   56 1    
    97   55   57 1    
    98   55   59 1    
    99   57  118 1    
   100   57   58 1    
   101   57  119 1    
   102   58  120 1    
   103   59   60 am   BACKBONE|DICT|INTERRES
   104   59  121 1    
   105   60   61 2    
   106   60   62 1    
   107   62   69 1    
   108   62   63 1    
   109   62   64 1    
   110   64   66 1    
   111   64   65 2    
   112   66   67 1    
   113   66   68 2    
   114   69  122 1    
   115   69   70 am   BACKBONE|DICT|INTERRES
   116   70   72 1    
   117   70   71 2    
   118   72  124 1    
   119   72   73 1    
   120   72  123 1    
   121   73   74 1    
   122   73  126 1    
   123   73  125 1    
   124   74  128 1    
   125   74   75 1    
   126   74  127 1    
   127   75   76 1    
   128   75  130 1    
   129   75  129 1    
   130   76  132 1    
   131   76   77 1    
   132   76  131 1    
   133   77  134 1    
   134   77   78 1    
   135   77  133 1    
   136   78   79 1    
   137   78  135 1    
   138   78  136 1    
   139   79  137 1    
   140   79  138 1    
   141   79   80 1    
   142   80   81 1    
   143   80  139 1    
   144   80  140 1    
   145   81  142 1    
   146   81  141 1    
   147   81   82 1    
   148   82  144 1    
   149   82  143 1    
   150   82  145 1    
@<TRIPOS>SUBSTRUCTURE
     1 UNK         1 GROUP             0       ****    0 ROOT    
@<TRIPOS>MOLECULE
054_C_c1
150   154    1
SMALL
USER_CHARGES


@<TRIPOS>ATOM
      1 Fe1         0.3956    1.4881    2.9394 Fe        1 UNK         0.0000 
      2 O2         -0.5151    2.3993    4.6400 O.co2     1 UNK         0.0000 
      3 C3          0.4740    2.6504    5.3487 C.2       1 UNK         0.0000 
      4 C4          0.5511    3.9651    6.1383 C.3       1 UNK         0.0000 
      5 N5          1.4800    1.7538    5.3608 N.am      1 UNK         0.0000 
      6 O6          1.3299    0.5553    4.8060 O.co2     1 UNK         0.0000 
      7 C7          2.7909    1.9532    6.0489 C.3       1 UNK         0.0000 
      8 C8          3.9342    0.9438    5.7269 C.3       1 UNK         0.0000 
      9 C9          5.1932    1.1414    6.5957 C.3       1 UNK         0.0000 
     10 C10         6.2777    0.0434    6.4263 C.3       1 UNK         0.0000 
     11 H11         5.7455   -0.9002    6.5154 H         1 UNK         0.0000 
     12 C12         7.2875    0.0653    7.5979 C.2       1 UNK         0.0000 
     13 O13         7.7844    1.0474    8.0967 O.2       1 UNK         0.0000 
     14 O14         7.4886   -1.1752    8.0890 O.3       1 UNK         0.0000 
     15 N15         6.9592   -0.0116    5.1244 N.am      1 UNK         0.0000 
     16 C16         7.6776    0.9813    4.5718 C.2       1 UNK         0.0000 
     17 O17         7.6944    2.1335    4.9968 O.2       1 UNK         0.0000 
     18 C18         8.4561    0.6582    3.2836 C.3       1 UNK         0.0000 
     19 H19         9.0924    1.5256    3.1058 H         1 UNK         0.0000 
     20 C20         9.3895   -0.5833    3.3330 C.3       1 UNK         0.0000 
     21 O21        10.3165   -0.5764    4.4101 O.3       1 UNK         0.0000 
     22 N22         7.5001    0.5362    2.1834 N.am      1 UNK         0.0000 
     23 C23         7.6979    1.0213    0.9481 C.2       1 UNK         0.0000 
     24 O24         8.7438    1.5503    0.5808 O.2       1 UNK         0.0000 
     25 C25         6.5194    0.8841   -0.0354 C.3       1 UNK         0.0000 
     26 H26         5.8623    0.1073    0.3642 H         1 UNK         0.0000 
     27 C27         5.6686    2.1790   -0.1351 C.3       1 UNK         0.0000 
     28 C28         4.7618    2.4252    1.0790 C.3       1 UNK         0.0000 
     29 C29         3.6108    3.4183    0.7756 C.3       1 UNK         0.0000 
     30 N30         2.3147    3.1560    1.4472 N.am      1 UNK         0.0000 
     31 O31         2.1001    1.9205    1.8900 O.co2     1 UNK         0.0000 
     32 C32         1.2977    4.0342    1.5627 C.2       1 UNK         0.0000 
     33 O33         0.3149    3.5416    2.1365 O.co2     1 UNK         0.0000 
     34 C34         1.3362    5.4845    1.0649 C.3       1 UNK         0.0000 
     35 N35         6.9481    0.3116   -1.3191 N.am      1 UNK         0.0000 
     36 C36         6.9333    0.8431   -2.5529 C.2       1 UNK         0.0000 
     37 O37         6.7237    2.0236   -2.8283 O.2       1 UNK         0.0000 
     38 C38         7.0473   -0.1676   -3.7056 C.3       1 UNK         0.0000 
     39 H39         7.5294   -1.0707   -3.3342 H         1 UNK         0.0000 
     40 C40         7.8931    0.3577   -4.8749 C.3       1 UNK         0.0000 
     41 C41         8.0128   -0.6387   -6.0439 C.3       1 UNK         0.0000 
     42 C42         8.9885   -0.1399   -7.1071 C.2       1 UNK         0.0000 
     43 O43        10.1706    0.0400   -6.8440 O.2       1 UNK         0.0000 
     44 N44         8.5160    0.0882   -8.3266 N.am      1 UNK         0.0000 
     45 N45         5.7029   -0.4860   -4.1865 N.am      1 UNK         0.0000 
     46 C46         4.9048   -1.3830   -3.5874 C.2       1 UNK         0.0000 
     47 O47         5.2497   -2.0207   -2.5906 O.2       1 UNK         0.0000 
     48 C48         3.4875   -1.5854   -4.1598 C.3       1 UNK         0.0000 
     49 H49         3.2190   -2.6069   -3.8854 H         1 UNK         0.0000 
     50 C50         3.3298   -1.4785   -5.7046 C.3       1 UNK         0.0000 
     51 O51         4.1875   -2.3175   -6.4649 O.3       1 UNK         0.0000 
     52 N52         2.5688   -0.6218   -3.5513 N.am      1 UNK         0.0000 
     53 C53         1.3993   -0.9603   -2.9871 C.2       1 UNK         0.0000 
     54 O54         1.0768   -2.1232   -2.7566 O.2       1 UNK         0.0000 
     55 C55         0.3570    0.1483   -2.7293 C.3       1 UNK         0.0000 
     56 H56        -0.3396   -0.0069   -3.5556 H         1 UNK         0.0000 
     57 C57         0.8169    1.6205   -2.8571 C.3       1 UNK         0.0000 
     58 O58         1.7835    1.9465   -1.8775 O.3       1 UNK         0.0000 
     59 N59        -0.3494   -0.0545   -1.4583 N.am      1 UNK         0.0000 
     60 C60        -1.6869    0.0410   -1.3406 C.2       1 UNK         0.0000 
     61 O61        -2.3899    0.2813   -2.3260 O.2       1 UNK         0.0000 
     62 C62        -2.4106   -0.1197    0.0321 C.3       1 UNK         0.0000 
     63 H63        -2.6532   -1.1861    0.1095 H         1 UNK         0.0000 
     64 C64        -1.5648    0.2377    1.2472 C.2       1 UNK         0.0000 
     65 O65        -1.2101    1.3547    1.7363 O.co2     1 UNK         0.0000 
     66 C66        -0.7352   -0.7952    1.9538 C.2       1 UNK         0.0000 
     67 O67         0.0935   -0.1341    2.6500 O.co2     1 UNK         0.0000 
     68 O68        -0.8749   -2.0047    1.6999 O.co2     1 UNK         0.0000 
     69 N69        -3.6474    0.6907    0.0567 N.am      1 UNK         0.0000 
     70 C70        -4.8474    0.2481    0.4671 C.2       1 UNK         0.0000 
     71 O71        -4.9824   -0.7914    1.1019 O.2       1 UNK         0.0000 
     72 C72        -6.0683    1.1258    0.1445 C.3       1 UNK         0.0000 
     73 C73        -7.1237    0.4998   -0.8097 C.3       1 UNK         0.0000 
     74 C74        -7.8723   -0.7269   -0.2465 C.3       1 UNK         0.0000 
     75 C75        -9.1225   -1.1014   -1.0665 C.3       1 UNK         0.0000 
     76 C76        -9.8862   -2.2959   -0.4713 C.3       1 UNK         0.0000 
     77 C77       -11.1960   -2.5928   -1.1751 C.2       1 UNK         0.0000 
     78 C78       -12.0303   -3.5855   -0.8192 C.2       1 UNK         0.0000 
     79 C79       -13.3568   -3.8880   -1.4931 C.3       1 UNK         0.0000 
     80 C80       -14.5532   -3.7433   -0.5363 C.3       1 UNK         0.0000 
     81 C81       -15.9063   -4.0075   -1.2185 C.3       1 UNK         0.0000 
     82 C82       -17.0882   -3.9062   -0.2407 C.3       1 UNK         0.0000 
     83 C83       -18.4445   -4.1667   -0.9175 C.3       1 UNK         0.0000 
     84 C84       -19.6219   -4.0914    0.0670 C.3       1 UNK         0.0000 
     85 H85         0.5123    4.8168    5.4642 H         1 UNK         0.0000 
     86 H86        -0.2994    4.0257    6.8131 H         1 UNK         0.0000 
     87 H87         1.4472    4.0549    6.7510 H         1 UNK         0.0000 
     88 H88         2.5980    1.9108    7.1221 H         1 UNK         0.0000 
     89 H89         3.1822    2.9595    5.8777 H         1 UNK         0.0000 
     90 H90         3.5675   -0.0720    5.8890 H         1 UNK         0.0000 
     91 H91         4.2052    1.0095    4.6730 H         1 UNK         0.0000 
     92 H92         4.8847    1.1461    7.6432 H         1 UNK         0.0000 
     93 H93         5.6200    2.1255    6.4211 H         1 UNK         0.0000 
     94 H94         7.0272   -0.9400    4.7434 H         1 UNK         0.0000 
     95 H95         8.7952   -1.4925    3.4030 H         1 UNK         0.0000 
     96 H96         9.9511   -0.6574    2.4010 H         1 UNK         0.0000 
     97 H97        10.9656   -1.2682    4.2786 H         1 UNK         0.0000 
     98 H98         6.6073    0.1413    2.4306 H         1 UNK         0.0000 
     99 H99         6.3026    3.0505   -0.3101 H         1 UNK         0.0000 
    100 H100        5.0153    2.0857   -1.0054 H         1 UNK         0.0000 
    101 H101        4.3731    1.4515    1.3689 H         1 UNK         0.0000 
    102 H102        5.3267    2.7753    1.9396 H         1 UNK         0.0000 
    103 H103        3.3854    3.4001   -0.2891 H         1 UNK         0.0000 
    104 H104        3.9811    4.4276    0.9506 H         1 UNK         0.0000 
    105 H105        1.2699    6.1655    1.9081 H         1 UNK         0.0000 
    106 H106        0.4858    5.6716    0.4198 H         1 UNK         0.0000 
    107 H107        2.2365    5.7295    0.5053 H         1 UNK         0.0000 
    108 H108        7.1553   -0.6718   -1.2513 H         1 UNK         0.0000 
    109 H109        7.4910    1.2971   -5.2455 H         1 UNK         0.0000 
    110 H110        8.8880    0.6029   -4.5047 H         1 UNK         0.0000 
    111 H111        7.0391   -0.8418   -6.4920 H         1 UNK         0.0000 
    112 H112        8.3818   -1.5954   -5.6769 H         1 UNK         0.0000 
    113 H113        9.1669    0.4303   -9.0155 H         1 UNK         0.0000 
    114 H114        7.5505   -0.0654   -8.5679 H         1 UNK         0.0000 
    115 H115        5.3877    0.0410   -4.9850 H         1 UNK         0.0000 
    116 H116        2.2978   -1.7052   -5.9808 H         1 UNK         0.0000 
    117 H117        3.5065   -0.4515   -6.0222 H         1 UNK         0.0000 
    118 H118        3.7360   -2.5947   -7.2680 H         1 UNK         0.0000 
    119 H119        2.8696    0.3406   -3.5503 H         1 UNK         0.0000 
    120 H120       -0.0372    2.2924   -2.7619 H         1 UNK         0.0000 
    121 H121        1.2353    1.8001   -3.8509 H         1 UNK         0.0000 
    122 H122        2.0555    2.8626   -1.9733 H         1 UNK         0.0000 
    123 H123        0.2627   -0.3315   -0.7055 H         1 UNK         0.0000 
    124 H124       -3.6310    1.4977   -0.5461 H         1 UNK         0.0000 
    125 H125       -5.7172    2.0672   -0.2844 H         1 UNK         0.0000 
    126 H126       -6.5377    1.4001    1.0906 H         1 UNK         0.0000 
    127 H127       -7.8611    1.2695   -1.0429 H         1 UNK         0.0000 
    128 H128       -6.6675    0.2469   -1.7662 H         1 UNK         0.0000 
    129 H129       -7.1955   -1.5830   -0.2008 H         1 UNK         0.0000 
    130 H130       -8.1717   -0.5287    0.7857 H         1 UNK         0.0000 
    131 H131       -8.8342   -1.3204   -2.0962 H         1 UNK         0.0000 
    132 H132       -9.7875   -0.2380   -1.1165 H         1 UNK         0.0000 
    133 H133       -9.2699   -3.1945   -0.5132 H         1 UNK         0.0000 
    134 H134      -10.1176   -2.1051    0.5765 H         1 UNK         0.0000 
    135 H135      -11.4582   -1.9512   -2.0062 H         1 UNK         0.0000 
    136 H136      -11.7663   -4.2311    0.0089 H         1 UNK         0.0000 
    137 H137      -13.4803   -3.2238   -2.3503 H         1 UNK         0.0000 
    138 H138      -13.3000   -4.9084   -1.8752 H         1 UNK         0.0000 
    139 H139      -14.5481   -2.7392   -0.1083 H         1 UNK         0.0000 
    140 H140      -14.4260   -4.4264    0.3052 H         1 UNK         0.0000 
    141 H141      -15.8960   -4.9983   -1.6753 H         1 UNK         0.0000 
    142 H142      -16.0456   -3.2977   -2.0356 H         1 UNK         0.0000 
    143 H143      -16.9474   -4.6185    0.5740 H         1 UNK         0.0000 
    144 H144      -17.0974   -2.9174    0.2210 H         1 UNK         0.0000 
    145 H145      -18.4378   -5.1493   -1.3930 H         1 UNK         0.0000 
    146 H146      -18.6013   -3.4442   -1.7208 H         1 UNK         0.0000 
    147 H147      -20.5700   -4.2778   -0.4401 H         1 UNK         0.0000 
    148 H148      -19.6864   -3.1077    0.5351 H         1 UNK         0.0000 
    149 H149      -19.5227   -4.8325    0.8620 H         1 UNK         0.0000 
    150 H150        8.0607   -0.9386    8.8180 H         1 UNK         0.0000 
@<TRIPOS>BOND
     1    1    2 nc   
     2    1    6 nc   
     3    1   31 nc   
     4    1   33 nc   
     5    1   65 nc   
     6    1   67 nc   
     7    2    3 2    
     8    3    4 1    
     9    3    5 am   BACKBONE|DICT|INTERRES
    10    4   87 1    
    11    4   86 1    
    12    4   85 1    
    13    5    7 1    
    14    5    6 1    
    15    7   88 1    
    16    7    8 1    
    17    7   89 1    
    18    8   90 1    
    19    8    9 1    
    20    8   91 1    
    21    9   92 1    
    22    9   10 1    
    23    9   93 1    
    24   10   11 1    
    25   10   12 1    
    26   10   15 1    
    27   12   13 2    
    28   12   14 1    
    29   14  150 1    
    30   15   16 am   BACKBONE|DICT|INTERRES
    31   15   94 1    
    32   16   17 2    
    33   16   18 1    
    34   18   19 1    
    35   18   20 1    
    36   18   22 1    
    37   20   95 1    
    38   20   21 1    
    39   20   96 1    
    40   21   97 1    
    41   22   98 1    
    42   22   23 am   BACKBONE|DICT|INTERRES
    43   23   24 2    
    44   23   25 1    
    45   25   26 1    
    46   25   27 1    
    47   25   35 1    
    48   27   28 1    
    49   27   99 1    
    50   27  100 1    
    51   28  102 1    
    52   28   29 1    
    53   28  101 1    
    54   29  104 1    
    55   29   30 1    
    56   29  103 1    
    57   30   32 am   BACKBONE|DICT|INTERRES
    58   30   31 1    
    59   32   33 2    
    60   32   34 1    
    61   34  105 1    
    62   34  106 1    
    63   34  107 1    
    64   35  108 1    
    65   35   36 am   BACKBONE|DICT|INTERRES
    66   36   37 2    
    67   36   38 1    
    68   38   39 1    
    69   38   40 1    
    70   38   45 1    
    71   40  110 1    
    72   40   41 1    
    73   40  109 1    
    74   41  112 1    
    75   41   42 1    
    76   41  111 1    
    77   42   43 2    
    78   42   44 am   BACKBONE|DICT|INTERRES
    79   44  113 1    
    80   44  114 1    
    81   45   46 am   BACKBONE|DICT|INTERRES
    82   45  115 1    
    83   46   47 2    
    84   46   48 1    
    85   48   49 1    
    86   48   52 1    
    87   48   50 1    
    88   50   51 1    
    89   50  116 1    
    90   50  117 1    
    91   51  118 1    
    92   52   53 am   BACKBONE|DICT|INTERRES
    93   52  119 1    
    94   53   54 2    
    95   53   55 1    
    96   55   56 1    
    97   55   59 1    
    98   55   57 1    
    99   57  120 1    
   100   57   58 1    
   101   57  121 1    
   102   58  122 1    
   103   59   60 am   BACKBONE|DICT|INTERRES
   104   59  123 1    
   105   60   62 1    
   106   60   61 2    
   107   62   63 1    
   108   62   64 1    
   109   62   69 1    
   110   64   66 1    
   111   64   65 2    
   112   66   67 1    
   113   66   68 2    
   114   69   70 am   BACKBONE|DICT|INTERRES
   115   69  124 1    
   116   70   71 2    
   117   70   72 1    
   118   72  126 1    
   119   72   73 1    
   120   72  125 1    
   121   73   74 1    
   122   73  127 1    
   123   73  128 1    
   124   74  129 1    
   125   74  130 1    
   126   74   75 1    
   127   75   76 1    
   128   75  131 1    
   129   75  132 1    
   130   76  134 1    
   131   76   77 1    
   132   76  133 1    
   133   77   78 2    
   134   77  135 1    
   135   78  136 1    
   136   78   79 1    
   137   79   80 1    
   138   79  137 1    
   139   79  138 1    
   140   80  139 1    
   141   80  140 1    
   142   80   81 1    
   143   81   82 1    
   144   81  141 1    
   145   81  142 1    
   146   82  144 1    
   147   82  143 1    
   148   82   83 1    
   149   83   84 1    
   150   83  145 1    
   151   83  146 1    
   152   84  148 1    
   153   84  149 1    
   154   84  147 1    
@<TRIPOS>SUBSTRUCTURE
     1 UNK         1 GROUP             0       ****    0 ROOT    
@<TRIPOS>MOLECULE
054_I_c1
148   152    1
SMALL
USER_CHARGES


@<TRIPOS>ATOM
      1 Fe1        -1.4262   -0.1043   -4.2482 Fe        1 UNK         0.0000 
      2 C2         17.0702   -3.0863   -0.9155 C.3       1 UNK         0.0000 
      3 C3         15.6213   -3.5430   -0.7041 C.3       1 UNK         0.0000 
      4 C4         14.5980   -2.4256   -0.9780 C.3       1 UNK         0.0000 
      5 C5         13.1540   -2.9101   -0.7842 C.3       1 UNK         0.0000 
      6 C6         12.0889   -1.8276   -1.0447 C.3       1 UNK         0.0000 
      7 C7         10.6791   -2.4121   -0.8731 C.3       1 UNK         0.0000 
      8 C8          9.5099   -1.4305   -1.0878 C.3       1 UNK         0.0000 
      9 C9          8.1878   -2.1959   -0.9134 C.3       1 UNK         0.0000 
     10 C10         6.8794   -1.3753   -0.9853 C.3       1 UNK         0.0000 
     11 C11         5.6370   -2.2874   -0.8359 C.3       1 UNK         0.0000 
     12 H12         5.6717   -3.0302   -1.6374 H         1 UNK         0.0000 
     13 O13         5.7340   -2.9706    0.4021 O.3       1 UNK         0.0000 
     14 C14         4.2743   -1.5584   -0.9030 C.3       1 UNK         0.0000 
     15 C15         3.0540   -2.5033   -0.8082 C.2       1 UNK         0.0000 
     16 O16         3.2384   -3.7211   -0.7586 O.2       1 UNK         0.0000 
     17 N17         1.7858   -2.0718   -0.7920 N.am      1 UNK         0.0000 
     18 C18         1.1573   -0.7452   -0.7557 C.3       1 UNK         0.0000 
     19 H19         0.1210   -1.0706   -0.6678 H         1 UNK         0.0000 
     20 C20         1.1352    0.0311   -2.1346 C.3       1 UNK         0.0000 
     21 H21         2.1507    0.3960   -2.2978 H         1 UNK         0.0000 
     22 O22         0.6239   -0.6953   -3.2439 O.co2     1 UNK         0.0000 
     23 C23         0.2179    1.3232   -2.0844 C.2       1 UNK         0.0000 
     24 O24        -0.7114    1.1930   -2.9415 O.co2     1 UNK         0.0000 
     25 O25         0.3329    2.1906   -1.1977 O.co2     1 UNK         0.0000 
     26 C26         1.3807    0.0119    0.5867 C.2       1 UNK         0.0000 
     27 O27         2.5138    0.2777    0.9842 O.2       1 UNK         0.0000 
     28 N28         0.2760    0.2949    1.2982 N.am      1 UNK         0.0000 
     29 C29         0.2408    0.9199    2.6159 C.3       1 UNK         0.0000 
     30 H30         1.2548    1.0195    3.0021 H         1 UNK         0.0000 
     31 C31        -0.3112    2.3602    2.4917 C.3       1 UNK         0.0000 
     32 O32         0.7422    3.2255    2.1028 O.3       1 UNK         0.0000 
     33 C33        -0.3825   -0.0715    3.6396 C.2       1 UNK         0.0000 
     34 O34         0.3228   -1.0059    4.0217 O.2       1 UNK         0.0000 
     35 N35        -1.6429   -0.0278    4.1011 N.am      1 UNK         0.0000 
     36 C36        -2.7988    0.8393    3.8755 C.3       1 UNK         0.0000 
     37 H37        -2.6607    1.5446    3.0609 H         1 UNK         0.0000 
     38 C38        -3.1224    1.5676    5.2043 C.3       1 UNK         0.0000 
     39 O39        -2.0636    2.4092    5.6263 O.3       1 UNK         0.0000 
     40 C40        -4.0079   -0.0531    3.5431 C.2       1 UNK         0.0000 
     41 O41        -4.0211   -1.2267    3.9209 O.2       1 UNK         0.0000 
     42 N42        -5.0366    0.5283    2.9152 N.am      1 UNK         0.0000 
     43 C43        -6.2668   -0.1568    2.5424 C.3       1 UNK         0.0000 
     44 H44        -6.1436   -1.2385    2.6372 H         1 UNK         0.0000 
     45 C45        -7.4199    0.2745    3.4788 C.3       1 UNK         0.0000 
     46 C46        -7.7875    1.7754    3.4573 C.3       1 UNK         0.0000 
     47 C47        -8.8078    2.1216    4.5323 C.2       1 UNK         0.0000 
     48 O48        -8.4990    2.8075    5.4974 O.2       1 UNK         0.0000 
     49 N49       -10.0370    1.6393    4.3998 N.am      1 UNK         0.0000 
     50 C50        -6.5412    0.1615    1.0679 C.2       1 UNK         0.0000 
     51 O51        -6.3052    1.2889    0.6504 O.2       1 UNK         0.0000 
     52 N52        -7.0358   -0.8434    0.3413 N.am      1 UNK         0.0000 
     53 C53        -7.2442   -0.9182   -1.1026 C.3       1 UNK         0.0000 
     54 H54        -7.4679   -1.9853   -1.1677 H         1 UNK         0.0000 
     55 C55        -5.9798   -0.8749   -1.9837 C.3       1 UNK         0.0000 
     56 C56        -6.2065   -1.3977   -3.4294 C.3       1 UNK         0.0000 
     57 C57        -5.1897   -2.4615   -3.9127 C.3       1 UNK         0.0000 
     58 N58        -3.7841   -2.0419   -3.9751 N.am      1 UNK         0.0000 
     59 O59        -3.5354   -0.7426   -3.9899 O.co2     1 UNK         0.0000 
     60 C60        -2.6976   -2.8256   -4.1410 C.2       1 UNK         0.0000 
     61 O61        -1.6629   -2.1606   -4.2748 O.co2     1 UNK         0.0000 
     62 C62        -2.7331   -4.3469   -4.2009 C.3       1 UNK         0.0000 
     63 C63        -8.5712   -0.3168   -1.6438 C.2       1 UNK         0.0000 
     64 O64        -9.5475   -1.0598   -1.6107 O.2       1 UNK         0.0000 
     65 N65        -8.7448    0.9157   -2.1514 N.am      1 UNK         0.0000 
     66 C66        -7.9353    2.1398   -2.1315 C.3       1 UNK         0.0000 
     67 H67        -7.3874    2.1866   -1.1994 H         1 UNK         0.0000 
     68 C68        -8.9212    3.3402   -2.1095 C.3       1 UNK         0.0000 
     69 O69        -8.2973    4.6112   -2.0423 O.3       1 UNK         0.0000 
     70 C70        -6.8893    2.2528   -3.2542 C.2       1 UNK         0.0000 
     71 O71        -5.7139    2.3554   -2.9299 O.2       1 UNK         0.0000 
     72 N72        -7.3162    2.2649   -4.5287 N.am      1 UNK         0.0000 
     73 C73        -6.4825    2.5991   -5.6973 C.3       1 UNK         0.0000 
     74 H74        -7.1584    2.5348   -6.5462 H         1 UNK         0.0000 
     75 C75        -6.0186    4.0819   -5.6961 C.2       1 UNK         0.0000 
     76 O76        -4.8924    4.2733   -4.9703 O.3       1 UNK         0.0000 
     77 O77        -6.6092    4.9689   -6.2756 O.2       1 UNK         0.0000 
     78 C78        -5.3524    1.5713   -5.9877 C.3       1 UNK         0.0000 
     79 C79        -4.5222    1.8047   -7.2827 C.3       1 UNK         0.0000 
     80 C80        -3.0745    2.3413   -7.1254 C.3       1 UNK         0.0000 
     81 N81        -2.1626    1.4406   -6.4060 N.am      1 UNK         0.0000 
     82 O82        -2.1636    1.4895   -5.0859 O.co2     1 UNK         0.0000 
     83 C83        -1.4563    0.4243   -6.9190 C.2       1 UNK         0.0000 
     84 O84        -0.9548   -0.2700   -6.0192 O.co2     1 UNK         0.0000 
     85 C85        -1.4048    0.0990   -8.4020 C.3       1 UNK         0.0000 
     86 H86        17.7693   -3.8981   -0.7103 H         1 UNK         0.0000 
     87 H87        17.3246   -2.2562   -0.2552 H         1 UNK         0.0000 
     88 H88        17.2363   -2.7594   -1.9428 H         1 UNK         0.0000 
     89 H89        15.5026   -3.9081    0.3182 H         1 UNK         0.0000 
     90 H90        15.4150   -4.3980   -1.3512 H         1 UNK         0.0000 
     91 H91        14.7922   -1.5784   -0.3179 H         1 UNK         0.0000 
     92 H92        14.7231   -2.0543   -1.9966 H         1 UNK         0.0000 
     93 H93        13.0367   -3.2939    0.2315 H         1 UNK         0.0000 
     94 H94        12.9732   -3.7607   -1.4447 H         1 UNK         0.0000 
     95 H95        12.2325   -0.9911   -0.3584 H         1 UNK         0.0000 
     96 H96        12.2042   -1.4249   -2.0524 H         1 UNK         0.0000 
     97 H97        10.5635   -3.2524   -1.5604 H         1 UNK         0.0000 
     98 H98        10.5996   -2.8399    0.1285 H         1 UNK         0.0000 
     99 H99         9.5649   -0.6090   -0.3715 H         1 UNK         0.0000 
    100 H100        9.5580   -0.9851   -2.0829 H         1 UNK         0.0000 
    101 H101        8.2213   -2.7065    0.0513 H         1 UNK         0.0000 
    102 H102        8.1366   -2.9887   -1.6614 H         1 UNK         0.0000 
    103 H103        6.8700   -0.6141   -0.2033 H         1 UNK         0.0000 
    104 H104        6.8353   -0.8415   -1.9353 H         1 UNK         0.0000 
    105 H105        4.9538   -3.5404    0.4610 H         1 UNK         0.0000 
    106 H106        4.2622   -0.8261   -0.1045 H         1 UNK         0.0000 
    107 H107        4.2084   -1.0171   -1.8453 H         1 UNK         0.0000 
    108 H108        1.1027   -2.8032   -0.8280 H         1 UNK         0.0000 
    109 H109       -0.6114    0.1033    0.8703 H         1 UNK         0.0000 
    110 H110       -1.1047    2.4348    1.7443 H         1 UNK         0.0000 
    111 H111       -0.7030    2.7010    3.4495 H         1 UNK         0.0000 
    112 H112        0.9770    2.9548    1.1924 H         1 UNK         0.0000 
    113 H113       -1.8768   -0.8112    4.6876 H         1 UNK         0.0000 
    114 H114       -3.3442    0.8459    5.9940 H         1 UNK         0.0000 
    115 H115       -4.0197    2.1797    5.0850 H         1 UNK         0.0000 
    116 H116       -2.2448    2.7483    6.5066 H         1 UNK         0.0000 
    117 H117       -4.9602    1.4573    2.5174 H         1 UNK         0.0000 
    118 H118       -7.1701   -0.0121    4.5007 H         1 UNK         0.0000 
    119 H119       -8.3084   -0.3080    3.2306 H         1 UNK         0.0000 
    120 H120       -6.9044    2.3884    3.6394 H         1 UNK         0.0000 
    121 H121       -8.1769    2.0836    2.4865 H         1 UNK         0.0000 
    122 H122      -10.3084    1.0710    3.6133 H         1 UNK         0.0000 
    123 H123      -10.7038    1.8655    5.1198 H         1 UNK         0.0000 
    124 H124       -7.1663   -1.7299    0.8025 H         1 UNK         0.0000 
    125 H125       -5.5156    0.1117   -1.9831 H         1 UNK         0.0000 
    126 H126       -5.2198   -1.4985   -1.5111 H         1 UNK         0.0000 
    127 H127       -7.1961   -1.8458   -3.5331 H         1 UNK         0.0000 
    128 H128       -6.2090   -0.5595   -4.1221 H         1 UNK         0.0000 
    129 H129       -5.2545   -3.3247   -3.2569 H         1 UNK         0.0000 
    130 H130       -5.4967   -2.8049   -4.8983 H         1 UNK         0.0000 
    131 H131       -2.4029   -4.6745   -5.1855 H         1 UNK         0.0000 
    132 H132       -2.0607   -4.7609   -3.4510 H         1 UNK         0.0000 
    133 H133       -3.7313   -4.7430   -4.0244 H         1 UNK         0.0000 
    134 H134       -9.6804    1.0591   -2.4905 H         1 UNK         0.0000 
    135 H135       -9.5828    3.2539   -1.2464 H         1 UNK         0.0000 
    136 H136       -9.5592    3.3144   -2.9936 H         1 UNK         0.0000 
    137 H137       -8.9359    5.3076   -2.2237 H         1 UNK         0.0000 
    138 H138       -8.2999    2.1846   -4.7076 H         1 UNK         0.0000 
    139 H139       -5.8015    0.5827   -6.0672 H         1 UNK         0.0000 
    140 H140       -4.7048    1.4919   -5.1181 H         1 UNK         0.0000 
    141 H141       -5.0597    2.4866   -7.9421 H         1 UNK         0.0000 
    142 H142       -4.4774    0.8678   -7.8395 H         1 UNK         0.0000 
    143 H143       -3.0823    3.2891   -6.5879 H         1 UNK         0.0000 
    144 H144       -2.6817    2.5849   -8.1130 H         1 UNK         0.0000 
    145 H145       -0.6912   -0.6993   -8.5853 H         1 UNK         0.0000 
    146 H146       -1.1171    0.9722   -8.9804 H         1 UNK         0.0000 
    147 H147       -2.3887   -0.2323   -8.7292 H         1 UNK         0.0000 
    148 H148       -4.6829    5.2044   -4.9324 H         1 UNK         0.0000 
@<TRIPOS>BOND
     1    1   22 nc   
     2    1   24 nc   
     3    1   59 nc   
     4    1   61 nc   
     5    1   82 nc   
     6    1   84 nc   
     7    2   86 1    
     8    2    3 1    
     9    2   87 1    
    10    2   88 1    
    11    3   89 1    
    12    3    4 1    
    13    3   90 1    
    14    4    5 1    
    15    4   91 1    
    16    4   92 1    
    17    5   93 1    
    18    5    6 1    
    19    5   94 1    
    20    6    7 1    
    21    6   95 1    
    22    6   96 1    
    23    7   98 1    
    24    7    8 1    
    25    7   97 1    
    26    8    9 1    
    27    8   99 1    
    28    8  100 1    
    29    9  101 1    
    30    9   10 1    
    31    9  102 1    
    32   10   11 1    
    33   10  103 1    
    34   10  104 1    
    35   11   12 1    
    36   11   13 1    
    37   11   14 1    
    38   13  105 1    
    39   14   15 1    
    40   14  106 1    
    41   14  107 1    
    42   15   17 am   BACKBONE|DICT|INTERRES
    43   15   16 2    
    44   17  108 1    
    45   17   18 1    
    46   18   19 1    
    47   18   26 1    
    48   18   20 1    
    49   20   21 1    
    50   20   22 1    
    51   20   23 1    
    52   23   25 2    
    53   23   24 1    
    54   26   27 2    
    55   26   28 am   BACKBONE|DICT|INTERRES
    56   28   29 1    
    57   28  109 1    
    58   29   30 1    
    59   29   33 1    
    60   29   31 1    
    61   31  111 1    
    62   31   32 1    
    63   31  110 1    
    64   32  112 1    
    65   33   34 2    
    66   33   35 am   BACKBONE|DICT|INTERRES
    67   35  113 1    
    68   35   36 1    
    69   36   37 1    
    70   36   38 1    
    71   36   40 1    
    72   38   39 1    
    73   38  114 1    
    74   38  115 1    
    75   39  116 1    
    76   40   41 2    
    77   40   42 am   BACKBONE|DICT|INTERRES
    78   42   43 1    
    79   42  117 1    
    80   43   44 1    
    81   43   45 1    
    82   43   50 1    
    83   45  118 1    
    84   45   46 1    
    85   45  119 1    
    86   46  120 1    
    87   46   47 1    
    88   46  121 1    
    89   47   48 2    
    90   47   49 am   BACKBONE|DICT|INTERRES
    91   49  123 1    
    92   49  122 1    
    93   50   51 2    
    94   50   52 am   BACKBONE|DICT|INTERRES
    95   52  124 1    
    96   52   53 1    
    97   53   54 1    
    98   53   55 1    
    99   53   63 1    
   100   55  125 1    
   101   55  126 1    
   102   55   56 1    
   103   56   57 1    
   104   56  127 1    
   105   56  128 1    
   106   57  129 1    
   107   57   58 1    
   108   57  130 1    
   109   58   59 1    
   110   58   60 am   BACKBONE|DICT|INTERRES
   111   60   62 1    
   112   60   61 2    
   113   62  133 1    
   114   62  132 1    
   115   62  131 1    
   116   63   64 2    
   117   63   65 am   BACKBONE|DICT|INTERRES
   118   65   66 1    
   119   65  134 1    
   120   66   67 1    
   121   66   68 1    
   122   66   70 1    
   123   68   69 1    
   124   68  135 1    
   125   68  136 1    
   126   69  137 1    
   127   70   71 2    
   128   70   72 am   BACKBONE|DICT|INTERRES
   129   72   73 1    
   130   72  138 1    
   131   73   74 1    
   132   73   75 1    
   133   73   78 1    
   134   75   76 1    
   135   75   77 2    
   136   76  148 1    
   137   78  140 1    
   138   78   79 1    
   139   78  139 1    
   140   79   80 1    
   141   79  141 1    
   142   79  142 1    
   143   80   81 1    
   144   80  143 1    
   145   80  144 1    
   146   81   82 1    
   147   81   83 am   BACKBONE|DICT|INTERRES
   148   83   85 1    
   149   83   84 2    
   150   85  145 1    
   151   85  146 1    
   152   85  147 1    
@<TRIPOS>SUBSTRUCTURE
     1 UNK         1 GROUP             0       ****    0 ROOT    
@<TRIPOS>MOLECULE
054_J_c1
140   144    1
SMALL
USER_CHARGES


@<TRIPOS>ATOM
      1 Fe1        -0.0540    1.2665   -2.4673 Fe        1 UNK         0.0000 
      2 O2         -0.2641    1.8246   -4.4882 O.co2     1 UNK         0.0000 
      3 C3          0.2507    1.0302   -5.2901 C.2       1 UNK         0.0000 
      4 C4         -0.1283    1.1975   -6.7580 C.3       1 UNK         0.0000 
      5 N5          1.0664    0.0454   -4.8335 N.am      1 UNK         0.0000 
      6 O6          1.3636   -0.1220   -3.5472 O.co2     1 UNK         0.0000 
      7 C7          1.7358   -0.9842   -5.6560 C.3       1 UNK         0.0000 
      8 C8          1.2276   -2.4155   -5.3551 C.3       1 UNK         0.0000 
      9 C9          2.1149   -3.5117   -5.9740 C.3       1 UNK         0.0000 
     10 C10         1.4229   -4.8921   -6.1333 C.3       1 UNK         0.0000 
     11 H11         0.5134   -4.6970   -6.6976 H         1 UNK         0.0000 
     12 C12         2.2480   -5.8167   -7.0576 C.2       1 UNK         0.0000 
     13 O13         3.4919   -6.0464   -6.5751 O.3       1 UNK         0.0000 
     14 O14         1.8407   -6.2598   -8.1064 O.2       1 UNK         0.0000 
     15 N15         0.9717   -5.5618   -4.8958 N.am      1 UNK         0.0000 
     16 C16         1.7295   -5.9171   -3.8462 C.2       1 UNK         0.0000 
     17 O17         2.8768   -5.5231   -3.6548 O.2       1 UNK         0.0000 
     18 C18         1.1070   -6.8570   -2.7946 C.3       1 UNK         0.0000 
     19 H19         0.1221   -7.1781   -3.1381 H         1 UNK         0.0000 
     20 C20         2.0161   -8.0989   -2.5843 C.3       1 UNK         0.0000 
     21 O21         1.3691   -9.1556   -1.8925 O.3       1 UNK         0.0000 
     22 N22         0.9581   -6.0474   -1.5903 N.am      1 UNK         0.0000 
     23 C23         0.0804   -6.2360   -0.5919 C.2       1 UNK         0.0000 
     24 O24        -0.5463   -7.2673   -0.3769 O.2       1 UNK         0.0000 
     25 C25        -0.2434   -4.9728    0.2154 C.3       1 UNK         0.0000 
     26 H26         0.6036   -4.3108    0.0286 H         1 UNK         0.0000 
     27 C27        -1.5052   -4.2867   -0.3935 C.3       1 UNK         0.0000 
     28 C28        -1.3506   -2.7664   -0.2997 C.3       1 UNK         0.0000 
     29 C29        -2.4671   -1.9213   -0.9542 C.3       1 UNK         0.0000 
     30 N30        -2.0687   -0.5346   -1.3140 N.am      1 UNK         0.0000 
     31 O31        -0.7687   -0.2567   -1.3068 O.co2     1 UNK         0.0000 
     32 C32        -2.8772    0.3709   -1.9182 C.2       1 UNK         0.0000 
     33 O33        -2.2618    1.3339   -2.4081 O.co2     1 UNK         0.0000 
     34 C34        -4.3832    0.1952   -2.0949 C.3       1 UNK         0.0000 
     35 N35        -0.1795   -5.1486    1.6774 N.am      1 UNK         0.0000 
     36 C36        -1.0343   -4.7043    2.6186 C.2       1 UNK         0.0000 
     37 O37        -2.1403   -4.2307    2.3864 O.2       1 UNK         0.0000 
     38 C38        -0.5443   -4.7561    4.0837 C.3       1 UNK         0.0000 
     39 H39         0.2892   -5.4568    4.1242 H         1 UNK         0.0000 
     40 C40        -1.6394   -5.3087    5.0259 C.3       1 UNK         0.0000 
     41 C41        -1.1870   -5.5597    6.4795 C.3       1 UNK         0.0000 
     42 C42        -2.2779   -6.2313    7.3252 C.2       1 UNK         0.0000 
     43 O43        -3.3722   -6.5248    6.8608 O.2       1 UNK         0.0000 
     44 N44        -2.0047   -6.5085    8.5932 N.am      1 UNK         0.0000 
     45 N45        -0.0318   -3.4478    4.5382 N.am      1 UNK         0.0000 
     46 C46        -0.7178   -2.2890    4.6445 C.2       1 UNK         0.0000 
     47 O47        -1.9246   -2.1705    4.4364 O.2       1 UNK         0.0000 
     48 C48         0.0887   -1.0290    5.0438 C.3       1 UNK         0.0000 
     49 H49         0.9925   -1.0787    4.4554 H         1 UNK         0.0000 
     50 C50         0.4596   -0.9915    6.5476 C.3       1 UNK         0.0000 
     51 O51        -0.6651   -1.0860    7.4100 O.3       1 UNK         0.0000 
     52 N52        -0.7168    0.1514    4.7320 N.am      1 UNK         0.0000 
     53 C53        -0.5311    1.2821    4.0332 C.2       1 UNK         0.0000 
     54 O54        -1.5157    1.9733    3.7667 O.2       1 UNK         0.0000 
     55 C55         0.8331    1.8373    3.5274 C.3       1 UNK         0.0000 
     56 H56         1.1128    2.5950    4.2616 H         1 UNK         0.0000 
     57 C57         2.0562    0.9047    3.3119 C.3       1 UNK         0.0000 
     58 O58         2.7517    0.6566    4.5247 O.3       1 UNK         0.0000 
     59 N59         0.5281    2.5642    2.2975 N.am      1 UNK         0.0000 
     60 C60         1.2955    3.5221    1.7610 C.2       1 UNK         0.0000 
     61 O61         2.4001    3.8122    2.2123 O.2       1 UNK         0.0000 
     62 C62         0.7516    4.3002    0.5386 C.3       1 UNK         0.0000 
     63 H63         1.5150    5.0339    0.2919 H         1 UNK         0.0000 
     64 C64         0.6467    3.3930   -0.6732 C.2       1 UNK         0.0000 
     65 O65        -0.3285    2.7436   -1.1334 O.co2     1 UNK         0.0000 
     66 C66         1.8352    2.9652   -1.4644 C.2       1 UNK         0.0000 
     67 O67         1.4297    2.0017   -2.1743 O.co2     1 UNK         0.0000 
     68 O68         2.7867    3.7546   -1.5673 O.co2     1 UNK         0.0000 
     69 N69        -0.5618    4.9477    0.7713 N.am      1 UNK         0.0000 
     70 C70        -0.8033    6.2602    0.9206 C.2       1 UNK         0.0000 
     71 O71        -1.9479    6.6468    1.1334 O.2       1 UNK         0.0000 
     72 C72         0.3646    7.2608    0.7927 C.3       1 UNK         0.0000 
     73 C73        -0.0191    8.7566    0.8705 C.3       1 UNK         0.0000 
     74 C74         1.1946    9.6832    0.6584 C.3       1 UNK         0.0000 
     75 C75         0.7807   11.1491    0.4492 C.3       1 UNK         0.0000 
     76 C76         1.9682   12.0829    0.1459 C.3       1 UNK         0.0000 
     77 C77         1.5453   13.4625   -0.4033 C.3       1 UNK         0.0000 
     78 C78         0.7250   14.3497    0.5547 C.3       1 UNK         0.0000 
     79 C79         1.5122   14.8216    1.7903 C.3       1 UNK         0.0000 
     80 C80         0.7216   15.8199    2.6462 C.3       1 UNK         0.0000 
     81 H81         0.2895    2.1329   -7.1239 H         1 UNK         0.0000 
     82 H82         0.1822    0.3892   -7.4109 H         1 UNK         0.0000 
     83 H83        -1.2123    1.2723   -6.8229 H         1 UNK         0.0000 
     84 H84         1.7037   -0.8151   -6.7282 H         1 UNK         0.0000 
     85 H85         2.8047   -0.9258   -5.4371 H         1 UNK         0.0000 
     86 H86         1.1582   -2.5913   -4.2779 H         1 UNK         0.0000 
     87 H87         0.2133   -2.4971   -5.7433 H         1 UNK         0.0000 
     88 H88         3.0396   -3.6090   -5.4032 H         1 UNK         0.0000 
     89 H89         2.4351   -3.1776   -6.9633 H         1 UNK         0.0000 
     90 H90         0.0261   -5.9061   -4.9357 H         1 UNK         0.0000 
     91 H91         2.9638   -7.8333   -2.1127 H         1 UNK         0.0000 
     92 H92         2.2796   -8.4992   -3.5648 H         1 UNK         0.0000 
     93 H93         2.0225   -9.6859   -1.4335 H         1 UNK         0.0000 
     94 H94         1.4603   -5.1726   -1.6583 H         1 UNK         0.0000 
     95 H95        -2.4407   -4.6416    0.0414 H         1 UNK         0.0000 
     96 H96        -1.5918   -4.5402   -1.4514 H         1 UNK         0.0000 
     97 H97        -0.4108   -2.5688   -0.8103 H         1 UNK         0.0000 
     98 H98        -1.2099   -2.4425    0.7308 H         1 UNK         0.0000 
     99 H99        -2.7725   -2.4302   -1.8705 H         1 UNK         0.0000 
    100 H100       -3.3578   -1.9311   -0.3215 H         1 UNK         0.0000 
    101 H101       -4.9194    0.9990   -1.5965 H         1 UNK         0.0000 
    102 H102       -4.7556   -0.7544   -1.7158 H         1 UNK         0.0000 
    103 H103       -4.5986    0.2466   -3.1586 H         1 UNK         0.0000 
    104 H104        0.6399   -5.6480    1.9817 H         1 UNK         0.0000 
    105 H105       -2.0071   -6.2469    4.6102 H         1 UNK         0.0000 
    106 H106       -2.5104   -4.6521    5.0289 H         1 UNK         0.0000 
    107 H107       -0.9097   -4.6151    6.9489 H         1 UNK         0.0000 
    108 H108       -0.3015   -6.1945    6.4844 H         1 UNK         0.0000 
    109 H109       -2.7433   -6.9411    9.1243 H         1 UNK         0.0000 
    110 H110       -1.1273   -6.2760    9.0249 H         1 UNK         0.0000 
    111 H111        0.9544   -3.4301    4.7325 H         1 UNK         0.0000 
    112 H112        1.1195   -1.8303    6.7738 H         1 UNK         0.0000 
    113 H113        1.0190   -0.0833    6.7757 H         1 UNK         0.0000 
    114 H114       -0.3898   -0.9446    8.3172 H         1 UNK         0.0000 
    115 H115       -1.6762   -0.0531    4.9739 H         1 UNK         0.0000 
    116 H116        2.7870    1.3586    2.6469 H         1 UNK         0.0000 
    117 H117        1.7737   -0.0155    2.8045 H         1 UNK         0.0000 
    118 H118        3.2725    1.4448    4.7233 H         1 UNK         0.0000 
    119 H119       -0.4391    2.4410    2.0294 H         1 UNK         0.0000 
    120 H120       -1.3592    4.3537    0.9308 H         1 UNK         0.0000 
    121 H121        1.1081    7.0428    1.5645 H         1 UNK         0.0000 
    122 H122        0.8234    7.0905   -0.1831 H         1 UNK         0.0000 
    123 H123       -0.4921    8.9824    1.8270 H         1 UNK         0.0000 
    124 H124       -0.7717    8.9691    0.1110 H         1 UNK         0.0000 
    125 H125        1.8784    9.6015    1.5048 H         1 UNK         0.0000 
    126 H126        1.7552    9.3455   -0.2143 H         1 UNK         0.0000 
    127 H127        0.0763   11.1935   -0.3834 H         1 UNK         0.0000 
    128 H128        0.2388   11.5058    1.3267 H         1 UNK         0.0000 
    129 H129        2.6113   11.6105   -0.5980 H         1 UNK         0.0000 
    130 H130        2.5945   12.2000    1.0314 H         1 UNK         0.0000 
    131 H131        2.4344   14.0118   -0.7128 H         1 UNK         0.0000 
    132 H132        0.9691   13.3156   -1.3170 H         1 UNK         0.0000 
    133 H133        0.3814   15.2247   -0.0002 H         1 UNK         0.0000 
    134 H134       -0.1848   13.8333    0.8654 H         1 UNK         0.0000 
    135 H135        1.7937   13.9637    2.4028 H         1 UNK         0.0000 
    136 H136        2.4470   15.2856    1.4713 H         1 UNK         0.0000 
    137 H137        0.4525   16.7071    2.0715 H         1 UNK         0.0000 
    138 H138       -0.1993   15.3754    3.0251 H         1 UNK         0.0000 
    139 H139        1.3106   16.1472    3.5029 H         1 UNK         0.0000 
    140 H140        3.9349   -6.5644   -7.2426 H         1 UNK         0.0000 
@<TRIPOS>BOND
     1    1    2 nc   
     2    1    6 nc   
     3    1   31 nc   
     4    1   33 nc   
     5    1   65 nc   
     6    1   67 nc   
     7    2    3 2    
     8    3    5 am   BACKBONE|DICT|INTERRES
     9    3    4 1    
    10    4   83 1    
    11    4   81 1    
    12    4   82 1    
    13    5    6 1    
    14    5    7 1    
    15    7   85 1    
    16    7    8 1    
    17    7   84 1    
    18    8   86 1    
    19    8    9 1    
    20    8   87 1    
    21    9   88 1    
    22    9   10 1    
    23    9   89 1    
    24   10   11 1    
    25   10   15 1    
    26   10   12 1    
    27   12   13 1    
    28   12   14 2    
    29   13  140 1    
    30   15   90 1    
    31   15   16 am   BACKBONE|DICT|INTERRES
    32   16   17 2    
    33   16   18 1    
    34   18   19 1    
    35   18   20 1    
    36   18   22 1    
    37   20   91 1    
    38   20   21 1    
    39   20   92 1    
    40   21   93 1    
    41   22   23 am   BACKBONE|DICT|INTERRES
    42   22   94 1    
    43   23   24 2    
    44   23   25 1    
    45   25   26 1    
    46   25   35 1    
    47   25   27 1    
    48   27   95 1    
    49   27   28 1    
    50   27   96 1    
    51   28   98 1    
    52   28   29 1    
    53   28   97 1    
    54   29  100 1    
    55   29   30 1    
    56   29   99 1    
    57   30   31 1    
    58   30   32 am   BACKBONE|DICT|INTERRES
    59   32   33 2    
    60   32   34 1    
    61   34  102 1    
    62   34  101 1    
    63   34  103 1    
    64   35  104 1    
    65   35   36 am   BACKBONE|DICT|INTERRES
    66   36   38 1    
    67   36   37 2    
    68   38   39 1    
    69   38   45 1    
    70   38   40 1    
    71   40   41 1    
    72   40  105 1    
    73   40  106 1    
    74   41  108 1    
    75   41  107 1    
    76   41   42 1    
    77   42   44 am   BACKBONE|DICT|INTERRES
    78   42   43 2    
    79   44  110 1    
    80   44  109 1    
    81   45  111 1    
    82   45   46 am   BACKBONE|DICT|INTERRES
    83   46   48 1    
    84   46   47 2    
    85   48   49 1    
    86   48   50 1    
    87   48   52 1    
    88   50  112 1    
    89   50  113 1    
    90   50   51 1    
    91   51  114 1    
    92   52  115 1    
    93   52   53 am   BACKBONE|DICT|INTERRES
    94   53   54 2    
    95   53   55 1    
    96   55   56 1    
    97   55   57 1    
    98   55   59 1    
    99   57   58 1    
   100   57  116 1    
   101   57  117 1    
   102   58  118 1    
   103   59   60 am   BACKBONE|DICT|INTERRES
   104   59  119 1    
   105   60   61 2    
   106   60   62 1    
   107   62   63 1    
   108   62   69 1    
   109   62   64 1    
   110   64   66 1    
   111   64   65 2    
   112   66   67 1    
   113   66   68 2    
   114   69  120 1    
   115   69   70 am   BACKBONE|DICT|INTERRES
   116   70   71 2    
   117   70   72 1    
   118   72   73 1    
   119   72  121 1    
   120   72  122 1    
   121   73  123 1    
   122   73   74 1    
   123   73  124 1    
   124   74  125 1    
   125   74   75 1    
   126   74  126 1    
   127   75  128 1    
   128   75   76 1    
   129   75  127 1    
   130   76  130 1    
   131   76   77 1    
   132   76  129 1    
   133   77   78 1    
   134   77  131 1    
   135   77  132 1    
   136   78  134 1    
   137   78   79 1    
   138   78  133 1    
   139   79  135 1    
   140   79   80 1    
   141   79  136 1    
   142   80  138 1    
   143   80  139 1    
   144   80  137 1    
@<TRIPOS>SUBSTRUCTURE
     1 UNK         1 GROUP             0       ****    0 ROOT    
@<TRIPOS>MOLECULE
055_c1
66   70    1
SMALL
USER_CHARGES


@<TRIPOS>ATOM
      1 Fe1         0.4473    0.6503    1.4316 Fe        1 UNK         0.0000 
      2 O2          1.2141   -0.1457    3.3381 O.co2     1 UNK         0.0000 
      3 C3          0.5338   -1.1125    3.6922 C.2       1 UNK         0.0000 
      4 C4          0.4569   -1.5764    5.1473 C.3       1 UNK         0.0000 
      5 N5         -0.1988   -1.6188    2.6820 N.am      1 UNK         0.0000 
      6 O6         -0.0214   -1.1082    1.4925 O.co2     1 UNK         0.0000 
      7 C7         -1.2782   -2.6316    2.7420 C.3       1 UNK         0.0000 
      8 C8         -1.1174   -3.7813    1.7034 C.3       1 UNK         0.0000 
      9 C9         -2.4142   -4.1185    0.9257 C.3       1 UNK         0.0000 
     10 C10        -2.1778   -4.9625   -0.3501 C.3       1 UNK         0.0000 
     11 C11        -1.1716   -4.4014   -1.3791 C.3       1 UNK         0.0000 
     12 N12        -1.3571   -2.9800   -1.7123 N.am      1 UNK         0.0000 
     13 C13        -0.3916   -2.0460   -1.6336 C.2       1 UNK         0.0000 
     14 O14         0.7116   -2.2884   -1.1635 O.2       1 UNK         0.0000 
     15 C15        -0.7003   -0.6569   -2.2339 C.3       1 UNK         0.0000 
     16 C16        -0.1609    0.6722   -1.5693 C.2       1 UNK         0.0000 
     17 O17        -0.7232    0.8282   -0.4776 O.co2     1 UNK         0.0000 
     18 C18         1.3876    0.5948   -1.2859 C.2       1 UNK         0.0000 
     19 O19         1.6648    0.6838   -0.0420 O.co2     1 UNK         0.0000 
     20 O20         2.1807    0.3829   -2.2232 O.co2     1 UNK         0.0000 
     21 C21        -0.5411    1.8691   -2.5363 C.3       1 UNK         0.0000 
     22 C22         0.1140    3.2598   -2.3870 C.2       1 UNK         0.0000 
     23 O23         1.3298    3.3622   -2.3365 O.2       1 UNK         0.0000 
     24 N24        -0.6756    4.3510   -2.3443 N.am      1 UNK         0.0000 
     25 C25        -0.1631    5.7362   -2.3444 C.3       1 UNK         0.0000 
     26 C26        -0.5443    6.5863   -1.1100 C.3       1 UNK         0.0000 
     27 C27         0.1608    6.2338    0.2246 C.3       1 UNK         0.0000 
     28 C28        -0.2233    4.8553    0.7612 C.3       1 UNK         0.0000 
     29 C29         0.2995    4.4952    2.1641 C.3       1 UNK         0.0000 
     30 N30         0.0569    3.0629    2.3942 N.am      1 UNK         0.0000 
     31 O31         1.0269    2.2510    1.9780 O.co2     1 UNK         0.0000 
     32 C32        -1.1787    2.5525    2.5513 C.2       1 UNK         0.0000 
     33 O33        -1.2556    1.3720    2.2006 O.co2     1 UNK         0.0000 
     34 C34        -2.4024    3.3597    2.9773 C.3       1 UNK         0.0000 
     35 H35         1.4204   -1.9707    5.4588 H         1 UNK         0.0000 
     36 H36         0.2152   -0.7329    5.7925 H         1 UNK         0.0000 
     37 H37        -0.2885   -2.3482    5.3224 H         1 UNK         0.0000 
     38 H38        -2.1948   -2.0688    2.5398 H         1 UNK         0.0000 
     39 H39        -1.4282   -3.0641    3.7309 H         1 UNK         0.0000 
     40 H40        -0.7144   -4.6643    2.2036 H         1 UNK         0.0000 
     41 H41        -0.3471   -3.5066    0.9786 H         1 UNK         0.0000 
     42 H42        -3.0939   -4.6611    1.5904 H         1 UNK         0.0000 
     43 H43        -2.9256   -3.1970    0.6310 H         1 UNK         0.0000 
     44 H44        -1.8432   -5.9596   -0.0612 H         1 UNK         0.0000 
     45 H45        -3.1353   -5.1171   -0.8463 H         1 UNK         0.0000 
     46 H46        -1.2512   -4.9635   -2.3107 H         1 UNK         0.0000 
     47 H47        -0.1599   -4.5882   -1.0066 H         1 UNK         0.0000 
     48 H48        -2.2361   -2.7146   -2.1210 H         1 UNK         0.0000 
     49 H49        -0.2943   -0.7178   -3.2420 H         1 UNK         0.0000 
     50 H50        -1.7792   -0.5627   -2.3424 H         1 UNK         0.0000 
     51 H51        -0.3139    1.5868   -3.5611 H         1 UNK         0.0000 
     52 H52        -1.6179    1.9931   -2.5232 H         1 UNK         0.0000 
     53 H53        -1.6721    4.2304   -2.4193 H         1 UNK         0.0000 
     54 H54        -0.5068    6.2329   -3.2522 H         1 UNK         0.0000 
     55 H55         0.9286    5.7501   -2.4188 H         1 UNK         0.0000 
     56 H56        -0.2790    7.6183   -1.3392 H         1 UNK         0.0000 
     57 H57        -1.6283    6.5961   -0.9824 H         1 UNK         0.0000 
     58 H58        -0.0983    6.9925    0.9703 H         1 UNK         0.0000 
     59 H59         1.2468    6.2697    0.0894 H         1 UNK         0.0000 
     60 H60         0.1740    4.1016    0.0857 H         1 UNK         0.0000 
     61 H61        -1.3122    4.7769    0.7403 H         1 UNK         0.0000 
     62 H62        -0.1679    5.1084    2.9352 H         1 UNK         0.0000 
     63 H63         1.3689    4.7312    2.2360 H         1 UNK         0.0000 
     64 H64        -2.7963    3.9587    2.1531 H         1 UNK         0.0000 
     65 H65        -3.1839    2.6648    3.2817 H         1 UNK         0.0000 
     66 H66        -2.1663    4.0078    3.8205 H         1 UNK         0.0000 
@<TRIPOS>BOND
     1    1    2 nc   
     2    1    6 nc   
     3    1   17 nc   
     4    1   19 nc   
     5    1   31 nc   
     6    1   33 nc   
     7    2    3 2    
     8    3    4 1    
     9    3    5 am   BACKBONE|DICT|INTERRES
    10    4   37 1    
    11    4   35 1    
    12    4   36 1    
    13    5    6 1    
    14    5    7 1    
    15    7   39 1    
    16    7    8 1    
    17    7   38 1    
    18    8   40 1    
    19    8    9 1    
    20    8   41 1    
    21    9   42 1    
    22    9   10 1    
    23    9   43 1    
    24   10   44 1    
    25   10   11 1    
    26   10   45 1    
    27   11   47 1    
    28   11   12 1    
    29   11   46 1    
    30   12   13 am   BACKBONE|DICT|INTERRES
    31   12   48 1    
    32   13   14 2    
    33   13   15 1    
    34   15   16 1    
    35   15   49 1    
    36   15   50 1    
    37   16   18 1    
    38   16   17 2    
    39   16   21 1    
    40   18   19 1    
    41   18   20 2    
    42   21   22 1    
    43   21   51 1    
    44   21   52 1    
    45   22   24 am   BACKBONE|DICT|INTERRES
    46   22   23 2    
    47   24   25 1    
    48   24   53 1    
    49   25   26 1    
    50   25   54 1    
    51   25   55 1    
    52   26   57 1    
    53   26   27 1    
    54   26   56 1    
    55   27   28 1    
    56   27   58 1    
    57   27   59 1    
    58   28   61 1    
    59   28   29 1    
    60   28   60 1    
    61   29   30 1    
    62   29   62 1    
    63   29   63 1    
    64   30   32 am   BACKBONE|DICT|INTERRES
    65   30   31 1    
    66   32   34 1    
    67   32   33 2    
    68   34   65 1    
    69   34   66 1    
    70   34   64 1    
@<TRIPOS>SUBSTRUCTURE
     1 UNK         1 GROUP             0       ****    0 ROOT    
@<TRIPOS>MOLECULE
056_c1
131   136    1
SMALL
USER_CHARGES


@<TRIPOS>ATOM
      1 Fe1        -1.2454    3.0787   -0.5295 Fe        1 UNK         0.0000 
      2 O2          2.7792    7.5445   -4.7471 O.3       1 UNK         0.0000 
      3 C3          1.7745    6.6521   -5.1873 C.3       1 UNK         0.0000 
      4 C4          1.5073    5.5546   -4.1383 C.3       1 UNK         0.0000 
      5 C5          2.5562    4.4465   -3.9143 C.2       1 UNK         0.0000 
      6 C6          3.9259    4.6533   -4.5297 C.3       1 UNK         0.0000 
      7 C7          2.3043    3.3125   -3.2174 C.2       1 UNK         0.0000 
      8 C8          1.0591    3.0375   -2.5481 C.2       1 UNK         0.0000 
      9 O9          0.3726    3.8707   -1.9122 O.co2     1 UNK         0.0000 
     10 N10         0.5628    1.7790   -2.5519 N.am      1 UNK         0.0000 
     11 O11        -0.5623    1.6577   -1.9337 O.co2     1 UNK         0.0000 
     12 C12         1.0771    0.4922   -3.0846 C.3       1 UNK         0.0000 
     13 C13         0.1905   -0.7659   -2.7418 C.3       1 UNK         0.0000 
     14 C14         0.2248   -1.9411   -3.6976 C.3       1 UNK         0.0000 
     15 C15        -0.8618   -3.0125   -3.4032 C.3       1 UNK         0.0000 
     16 H16        -0.8872   -3.4698   -4.3952 H         1 UNK         0.0000 
     17 C17        -0.3983   -4.2175   -2.5766 C.2       1 UNK         0.0000 
     18 O18         0.4329   -4.1101   -1.6756 O.2       1 UNK         0.0000 
     19 N19        -0.8924   -5.3734   -3.0348 N.am      1 UNK         0.0000 
     20 C20        -0.3585   -6.7083   -2.8188 C.3       1 UNK         0.0000 
     21 H21        -1.0031   -7.3764   -3.3922 H         1 UNK         0.0000 
     22 C22         1.0747   -6.8227   -3.4149 C.3       1 UNK         0.0000 
     23 O23         1.0614   -6.5108   -4.8037 O.3       1 UNK         0.0000 
     24 C24        -0.5300   -7.1513   -1.3600 C.2       1 UNK         0.0000 
     25 O25        -1.6657   -7.1595   -0.8938 O.2       1 UNK         0.0000 
     26 N26         0.5511   -7.6007   -0.7007 N.am      1 UNK         0.0000 
     27 C27         0.5428   -8.1498    0.6562 C.3       1 UNK         0.0000 
     28 H28         1.5759   -8.4244    0.8711 H         1 UNK         0.0000 
     29 C29        -0.2896   -9.4506    0.7231 C.3       1 UNK         0.0000 
     30 C30         0.1585   -7.1271    1.7445 C.2       1 UNK         0.0000 
     31 O31        -0.6165   -7.4559    2.6375 O.2       1 UNK         0.0000 
     32 N32         0.7966   -5.9469    1.6867 N.am      1 UNK         0.0000 
     33 C33         0.8054   -4.9718    2.7716 C.3       1 UNK         0.0000 
     34 C34        -0.5626   -4.3429    3.0482 C.2       1 UNK         0.0000 
     35 O35        -1.0685   -4.5518    4.1483 O.2       1 UNK         0.0000 
     36 N36        -1.1267   -3.5307    2.1162 N.am      1 UNK         0.0000 
     37 C37        -2.3553   -2.7652    2.4033 C.3       1 UNK         0.0000 
     38 H38        -2.8316   -3.3836    3.1640 H         1 UNK         0.0000 
     39 C39        -2.1520   -1.4883    3.2923 C.3       1 UNK         0.0000 
     40 C40        -1.5192   -0.3023    2.5575 C.3       1 UNK         0.0000 
     41 C41        -1.0374    1.0177    3.2960 C.3       1 UNK         0.0000 
     42 N42        -0.7235    2.1434    2.3570 N.am      1 UNK         0.0000 
     43 O43        -0.9112    1.8182    1.1162 O.co2     1 UNK         0.0000 
     44 C44        -0.5402    3.4938    2.5052 C.2       1 UNK         0.0000 
     45 O45        -0.7267    4.1491    1.4461 O.co2     1 UNK         0.0000 
     46 C46         0.0305    4.0148    3.7318 C.2       1 UNK         0.0000 
     47 C47         0.3611    5.3092    4.0112 C.2       1 UNK         0.0000 
     48 C48         0.1359    6.5278    3.1075 C.3       1 UNK         0.0000 
     49 C49         1.0442    5.6176    5.3488 C.3       1 UNK         0.0000 
     50 C50         1.3713    7.0870    5.7157 C.3       1 UNK         0.0000 
     51 O51         0.2004    7.8475    5.9621 O.3       1 UNK         0.0000 
     52 C52        -3.5258   -2.8492    1.3653 C.2       1 UNK         0.0000 
     53 O53        -4.5621   -3.3625    1.7781 O.2       1 UNK         0.0000 
     54 N54        -3.5235   -2.5394    0.0421 N.am      1 UNK         0.0000 
     55 C55        -2.9026   -1.6594   -0.9682 C.3       1 UNK         0.0000 
     56 H56        -1.8434   -1.4941   -0.7919 H         1 UNK         0.0000 
     57 C57        -3.1794   -2.4051   -2.3079 C.2       1 UNK         0.0000 
     58 O58        -4.3474   -2.7281   -2.5124 O.2       1 UNK         0.0000 
     59 N59        -2.2900   -2.6501   -3.2995 N.am      1 UNK         0.0000 
     60 C60        -3.7191   -0.3002   -0.9990 C.3       1 UNK         0.0000 
     61 C61        -3.8024    0.6020   -2.2988 C.3       1 UNK         0.0000 
     62 C62        -4.4852    2.0317   -2.1378 C.3       1 UNK         0.0000 
     63 N63        -3.7573    3.0601   -1.3489 N.am      1 UNK         0.0000 
     64 O64        -2.7711    2.5498   -0.6891 O.co2     1 UNK         0.0000 
     65 C65        -3.4783    4.3844   -1.6195 C.2       1 UNK         0.0000 
     66 O66        -2.3189    4.6677   -1.2059 O.co2     1 UNK         0.0000 
     67 C67        -4.3397    5.3042   -2.3355 C.2       1 UNK         0.0000 
     68 C68        -5.6918    5.4089   -2.3659 C.2       1 UNK         0.0000 
     69 C69        -6.6911    4.5081   -1.6521 C.3       1 UNK         0.0000 
     70 C70        -6.2879    6.5648   -3.1816 C.3       1 UNK         0.0000 
     71 C71        -7.8026    6.8211   -3.1465 C.3       1 UNK         0.0000 
     72 O72        -8.0363    7.9874   -3.9064 O.3       1 UNK         0.0000 
     73 H73         3.0903    8.0621   -5.4918 H         1 UNK         0.0000 
     74 H74         2.0434    6.2294   -6.1536 H         1 UNK         0.0000 
     75 H75         0.8593    7.2269   -5.3498 H         1 UNK         0.0000 
     76 H76         0.5654    5.0705   -4.4025 H         1 UNK         0.0000 
     77 H77         1.3235    6.0325   -3.1782 H         1 UNK         0.0000 
     78 H78         4.3738    5.5540   -4.1115 H         1 UNK         0.0000 
     79 H79         3.8526    4.7456   -5.6129 H         1 UNK         0.0000 
     80 H80         4.5986    3.8221   -4.3116 H         1 UNK         0.0000 
     81 H81         3.0564    2.5455   -3.1191 H         1 UNK         0.0000 
     82 H82         1.1203    0.6142   -4.1655 H         1 UNK         0.0000 
     83 H83         2.0991    0.3104   -2.7437 H         1 UNK         0.0000 
     84 H84         0.3916   -1.0951   -1.7221 H         1 UNK         0.0000 
     85 H85        -0.8614   -0.4914   -2.7700 H         1 UNK         0.0000 
     86 H86         1.2132   -2.4027   -3.6578 H         1 UNK         0.0000 
     87 H87         0.1011   -1.5791   -4.7222 H         1 UNK         0.0000 
     88 H88        -1.6431   -5.3252   -3.6977 H         1 UNK         0.0000 
     89 H89         1.7819   -6.1568   -2.9159 H         1 UNK         0.0000 
     90 H90         1.4590   -7.8378   -3.3032 H         1 UNK         0.0000 
     91 H91         0.6312   -7.2157   -5.2915 H         1 UNK         0.0000 
     92 H92         1.4523   -7.5493   -1.1434 H         1 UNK         0.0000 
     93 H93        -1.3479   -9.2657    0.5355 H         1 UNK         0.0000 
     94 H94        -0.2213   -9.9025    1.7119 H         1 UNK         0.0000 
     95 H95         0.0574  -10.1869   -0.0010 H         1 UNK         0.0000 
     96 H96         1.4173   -5.7844    0.9123 H         1 UNK         0.0000 
     97 H97         1.5182   -4.1781    2.5567 H         1 UNK         0.0000 
     98 H98         1.1391   -5.4622    3.6923 H         1 UNK         0.0000 
     99 H99        -0.6883   -3.3839    1.2209 H         1 UNK         0.0000 
    100 H100       -1.5431   -1.7502    4.1587 H         1 UNK         0.0000 
    101 H101       -3.1201   -1.1805    3.6924 H         1 UNK         0.0000 
    102 H102       -0.6803   -0.6727    1.9709 H         1 UNK         0.0000 
    103 H103       -2.2880   -0.0125    1.8430 H         1 UNK         0.0000 
    104 H104       -1.8088    1.3646    3.9810 H         1 UNK         0.0000 
    105 H105       -0.1842    0.7756    3.9343 H         1 UNK         0.0000 
    106 H106        0.2496    3.2666    4.4795 H         1 UNK         0.0000 
    107 H107       -0.3609    6.3283    2.1689 H         1 UNK         0.0000 
    108 H108       -0.4898    7.2659    3.6089 H         1 UNK         0.0000 
    109 H109        1.0885    6.9947    2.8608 H         1 UNK         0.0000 
    110 H110        1.9930    5.0781    5.3269 H         1 UNK         0.0000 
    111 H111        0.4603    5.1645    6.1520 H         1 UNK         0.0000 
    112 H112        1.9972    7.1175    6.6095 H         1 UNK         0.0000 
    113 H113        1.9501    7.5662    4.9236 H         1 UNK         0.0000 
    114 H114       -0.2760    7.4797    6.7086 H         1 UNK         0.0000 
    115 H115       -4.3524   -2.9160   -0.3970 H         1 UNK         0.0000 
    116 H116       -2.7793   -2.9483   -4.1235 H         1 UNK         0.0000 
    117 H117       -4.7642   -0.5362   -0.8011 H         1 UNK         0.0000 
    118 H118       -3.4240    0.2656   -0.1207 H         1 UNK         0.0000 
    119 H119       -4.3831    0.0603   -3.0502 H         1 UNK         0.0000 
    120 H120       -2.8130    0.7395   -2.7299 H         1 UNK         0.0000 
    121 H121       -5.4209    1.8687   -1.6036 H         1 UNK         0.0000 
    122 H122       -4.7477    2.4388   -3.1175 H         1 UNK         0.0000 
    123 H123       -3.7540    6.0100   -2.8971 H         1 UNK         0.0000 
    124 H124       -7.2883    3.9642   -2.3906 H         1 UNK         0.0000 
    125 H125       -7.3487    5.0977   -1.0156 H         1 UNK         0.0000 
    126 H126       -6.2188    3.7869   -0.9891 H         1 UNK         0.0000 
    127 H127       -5.9945    6.4326   -4.2191 H         1 UNK         0.0000 
    128 H128       -5.7932    7.4758   -2.8521 H         1 UNK         0.0000 
    129 H129       -8.3582    5.9887   -3.5768 H         1 UNK         0.0000 
    130 H130       -8.1642    6.9748   -2.1303 H         1 UNK         0.0000 
    131 H131       -8.9623    8.2347   -3.8668 H         1 UNK         0.0000 
@<TRIPOS>BOND
     1    1    9 nc   
     2    1   11 nc   
     3    1   43 nc   
     4    1   45 nc   
     5    1   64 nc   
     6    1   66 nc   
     7    2    3 1    
     8    2   73 1    
     9    3    4 1    
    10    3   74 1    
    11    3   75 1    
    12    4    5 1    
    13    4   77 1    
    14    4   76 1    
    15    5    7 2    
    16    5    6 1    
    17    6   80 1    
    18    6   78 1    
    19    6   79 1    
    20    7   81 1    
    21    7    8 1    
    22    8   10 am   BACKBONE|DICT|INTERRES
    23    8    9 2    
    24   10   11 1    
    25   10   12 1    
    26   12   13 1    
    27   12   83 1    
    28   12   82 1    
    29   13   84 1    
    30   13   14 1    
    31   13   85 1    
    32   14   15 1    
    33   14   86 1    
    34   14   87 1    
    35   15   16 1    
    36   15   59 1    
    37   15   17 1    
    38   17   18 2    
    39   17   19 am   BACKBONE|DICT|INTERRES
    40   19   20 1    
    41   19   88 1    
    42   20   21 1    
    43   20   24 1    
    44   20   22 1    
    45   22   90 1    
    46   22   89 1    
    47   22   23 1    
    48   23   91 1    
    49   24   25 2    
    50   24   26 am   BACKBONE|DICT|INTERRES
    51   26   27 1    
    52   26   92 1    
    53   27   29 1    
    54   27   28 1    
    55   27   30 1    
    56   29   94 1    
    57   29   93 1    
    58   29   95 1    
    59   30   32 am   BACKBONE|DICT|INTERRES
    60   30   31 2    
    61   32   33 1    
    62   32   96 1    
    63   33   34 1    
    64   33   98 1    
    65   33   97 1    
    66   34   35 2    
    67   34   36 am   BACKBONE|DICT|INTERRES
    68   36   37 1    
    69   36   99 1    
    70   37   39 1    
    71   37   38 1    
    72   37   52 1    
    73   39  101 1    
    74   39  100 1    
    75   39   40 1    
    76   40   41 1    
    77   40  102 1    
    78   40  103 1    
    79   41  105 1    
    80   41  104 1    
    81   41   42 1    
    82   42   44 am   BACKBONE|DICT|INTERRES
    83   42   43 1    
    84   44   46 1    
    85   44   45 2    
    86   46   47 2    
    87   46  106 1    
    88   47   49 1    
    89   47   48 1    
    90   48  108 1    
    91   48  107 1    
    92   48  109 1    
    93   49  110 1    
    94   49   50 1    
    95   49  111 1    
    96   50   51 1    
    97   50  112 1    
    98   50  113 1    
    99   51  114 1    
   100   52   53 2    
   101   52   54 am   BACKBONE|DICT|INTERRES
   102   54   55 1    
   103   54  115 1    
   104   55   56 1    
   105   55   57 1    
   106   55   60 1    
   107   57   58 2    
   108   57   59 am   BACKBONE|DICT|INTERRES
   109   59  116 1    
   110   60  117 1    
   111   60  118 1    
   112   60   61 1    
   113   61   62 1    
   114   61  119 1    
   115   61  120 1    
   116   62  121 1    
   117   62   63 1    
   118   62  122 1    
   119   63   65 am   BACKBONE|DICT|INTERRES
   120   63   64 1    
   121   65   67 1    
   122   65   66 2    
   123   67   68 2    
   124   67  123 1    
   125   68   69 1    
   126   68   70 1    
   127   69  126 1    
   128   69  125 1    
   129   69  124 1    
   130   70  128 1    
   131   70   71 1    
   132   70  127 1    
   133   71  130 1    
   134   71   72 1    
   135   71  129 1    
   136   72  131 1    
@<TRIPOS>SUBSTRUCTURE
     1 UNK         1 GROUP             0       ****    0 ROOT    
@<TRIPOS>MOLECULE
057_c1
121   126    1
SMALL
USER_CHARGES


@<TRIPOS>ATOM
      1 Fe1         0.6149    3.5636    1.0051 Fe        1 UNK         0.0000 
      2 O2          1.7385    9.4450   -1.3489 O.3       1 UNK         0.0000 
      3 C3          1.9089    8.6967   -2.5402 C.3       1 UNK         0.0000 
      4 C4          1.5466    7.2326   -2.2443 C.3       1 UNK         0.0000 
      5 C5          1.5827    6.1989   -3.3899 C.2       1 UNK         0.0000 
      6 C6          2.1205    6.6932   -4.7182 C.3       1 UNK         0.0000 
      7 C7          1.1947    4.8999   -3.2597 C.2       1 UNK         0.0000 
      8 C8          0.7672    4.2867   -2.0127 C.2       1 UNK         0.0000 
      9 O9          0.7921    4.8406   -0.8981 O.co2     1 UNK         0.0000 
     10 N10         0.5779    2.9418   -1.9386 N.am      1 UNK         0.0000 
     11 O11         0.6694    2.4672   -0.7363 O.co2     1 UNK         0.0000 
     12 C12         0.1564    1.9396   -2.9414 C.3       1 UNK         0.0000 
     13 C13        -0.8826    0.8526   -2.4612 C.3       1 UNK         0.0000 
     14 C14        -0.4084   -0.1803   -1.3750 C.3       1 UNK         0.0000 
     15 C15        -1.3093   -1.4242   -1.1596 C.3       1 UNK         0.0000 
     16 H16        -1.6166   -1.6710   -2.1769 H         1 UNK         0.0000 
     17 C17        -0.5854   -2.7319   -0.7993 C.2       1 UNK         0.0000 
     18 O18         0.6242   -2.7425   -0.5980 O.2       1 UNK         0.0000 
     19 N19        -1.3659   -3.8249   -0.7825 N.am      1 UNK         0.0000 
     20 C20        -0.9370   -5.2304   -0.7643 C.3       1 UNK         0.0000 
     21 H21        -1.7882   -5.7728   -0.3499 H         1 UNK         0.0000 
     22 C22        -0.7963   -5.7324   -2.2288 C.3       1 UNK         0.0000 
     23 O23         0.2286   -5.0796   -2.9594 O.3       1 UNK         0.0000 
     24 C24         0.2501   -5.5850    0.1645 C.2       1 UNK         0.0000 
     25 O25         0.0573   -5.6776    1.3793 O.2       1 UNK         0.0000 
     26 N26         1.4294   -5.8495   -0.4214 N.am      1 UNK         0.0000 
     27 C27         2.6624   -6.3229    0.2081 C.3       1 UNK         0.0000 
     28 H28         3.3482   -6.5390   -0.6118 H         1 UNK         0.0000 
     29 C29         2.4177   -7.6592    0.9650 C.3       1 UNK         0.0000 
     30 O30         3.5820   -8.2249    1.5436 O.3       1 UNK         0.0000 
     31 C31         3.3566   -5.2486    1.0567 C.2       1 UNK         0.0000 
     32 O32         4.3972   -4.7360    0.6450 O.2       1 UNK         0.0000 
     33 N33         2.7966   -4.9745    2.2368 N.am      1 UNK         0.0000 
     34 C34         3.2578   -3.9539    3.1456 C.3       1 UNK         0.0000 
     35 C35         2.0870   -2.9944    3.1897 C.2       1 UNK         0.0000 
     36 O36         1.8642   -2.2558    2.2390 O.2       1 UNK         0.0000 
     37 N37         1.3217   -3.0377    4.2911 N.am      1 UNK         0.0000 
     38 C38         0.0876   -2.2886    4.5023 C.3       1 UNK         0.0000 
     39 H39        -0.3513   -2.7776    5.3674 H         1 UNK         0.0000 
     40 C40         0.3133   -0.8364    5.0412 C.3       1 UNK         0.0000 
     41 C41         1.2629    0.0273    4.1826 C.3       1 UNK         0.0000 
     42 C42         1.3941    1.5550    4.4814 C.3       1 UNK         0.0000 
     43 N43         1.8816    2.3658    3.3283 N.am      1 UNK         0.0000 
     44 O44         1.4694    1.9345    2.1660 O.co2     1 UNK         0.0000 
     45 C45         2.3878    3.6119    3.3262 C.2       1 UNK         0.0000 
     46 O46         2.2775    4.2197    2.2446 O.co2     1 UNK         0.0000 
     47 C47         2.9010    4.3178    4.5684 C.3       1 UNK         0.0000 
     48 C48        -0.9896   -2.5663    3.3956 C.2       1 UNK         0.0000 
     49 O49        -1.7384   -3.5309    3.5685 O.2       1 UNK         0.0000 
     50 N50        -1.0806   -1.8041    2.2920 N.am      1 UNK         0.0000 
     51 C51        -2.2307   -0.9152    2.1083 C.3       1 UNK         0.0000 
     52 H52        -2.9520   -1.2146    2.8732 H         1 UNK         0.0000 
     53 C53        -3.0541   -1.0354    0.7923 C.2       1 UNK         0.0000 
     54 O54        -4.2704   -0.9470    0.9134 O.2       1 UNK         0.0000 
     55 N55        -2.5912   -1.2051   -0.4683 N.am      1 UNK         0.0000 
     56 C56        -1.8659    0.5408    2.4634 C.3       1 UNK         0.0000 
     57 C57        -2.9960    1.6109    2.5127 C.3       1 UNK         0.0000 
     58 C58        -2.5567    2.9858    3.1256 C.3       1 UNK         0.0000 
     59 N59        -1.5965    3.7976    2.3403 N.am      1 UNK         0.0000 
     60 O60        -0.9994    3.1690    1.3393 O.co2     1 UNK         0.0000 
     61 C61        -0.9898    4.9599    2.6829 C.2       1 UNK         0.0000 
     62 O62        -0.0515    5.1792    1.8996 O.co2     1 UNK         0.0000 
     63 C63        -1.2279    5.6502    3.9417 C.2       1 UNK         0.0000 
     64 C64        -0.7049    6.8649    4.2452 C.2       1 UNK         0.0000 
     65 C65         0.0747    7.7303    3.2555 C.3       1 UNK         0.0000 
     66 C66        -0.8974    7.5003    5.6266 C.3       1 UNK         0.0000 
     67 C67         0.3793    7.7308    6.4655 C.3       1 UNK         0.0000 
     68 O68         1.2182    8.7235    5.9090 O.3       1 UNK         0.0000 
     69 H69         1.9256   10.3708   -1.5246 H         1 UNK         0.0000 
     70 H70         1.2708    9.1106   -3.3183 H         1 UNK         0.0000 
     71 H71         2.9404    8.7908   -2.8753 H         1 UNK         0.0000 
     72 H72         0.5439    7.2208   -1.8178 H         1 UNK         0.0000 
     73 H73         2.2080    6.8768   -1.4543 H         1 UNK         0.0000 
     74 H74         2.1630    5.8906   -5.4559 H         1 UNK         0.0000 
     75 H75         3.1370    7.0675   -4.5862 H         1 UNK         0.0000 
     76 H76         1.4849    7.4830   -5.1162 H         1 UNK         0.0000 
     77 H77        -0.2220    2.4337   -3.8322 H         1 UNK         0.0000 
     78 H78         1.0612    1.4193   -3.2618 H         1 UNK         0.0000 
     79 H79        -1.7996    1.3480   -2.1399 H         1 UNK         0.0000 
     80 H80        -1.1470    0.2880   -3.3530 H         1 UNK         0.0000 
     81 H81        -0.2961    0.2794   -0.3961 H         1 UNK         0.0000 
     82 H82         0.5912   -0.5015   -1.6666 H         1 UNK         0.0000 
     83 H83        -2.3505   -3.6827   -0.9366 H         1 UNK         0.0000 
     84 H84        -0.5794   -6.8024   -2.2364 H         1 UNK         0.0000 
     85 H85        -1.7364   -5.6003   -2.7627 H         1 UNK         0.0000 
     86 H86         0.0355   -5.1446   -3.8976 H         1 UNK         0.0000 
     87 H87         1.5166   -5.5674   -1.3926 H         1 UNK         0.0000 
     88 H88         1.7043   -7.5152    1.7752 H         1 UNK         0.0000 
     89 H89         1.9715   -8.3914    0.2939 H         1 UNK         0.0000 
     90 H90         4.2168   -8.4455    0.8577 H         1 UNK         0.0000 
     91 H91         1.8668   -5.3363    2.4128 H         1 UNK         0.0000 
     92 H92         3.4596   -4.3946    4.1191 H         1 UNK         0.0000 
     93 H93         4.1660   -3.4480    2.8122 H         1 UNK         0.0000 
     94 H94         1.5154   -3.7391    4.9862 H         1 UNK         0.0000 
     95 H95         0.7481   -0.9054    6.0374 H         1 UNK         0.0000 
     96 H96        -0.6488   -0.3465    5.1782 H         1 UNK         0.0000 
     97 H97         2.2683   -0.3854    4.2083 H         1 UNK         0.0000 
     98 H98         0.9215   -0.1252    3.1646 H         1 UNK         0.0000 
     99 H99         1.9165    1.7109    5.4306 H         1 UNK         0.0000 
    100 H100        0.3887    1.9368    4.6541 H         1 UNK         0.0000 
    101 H101        3.9400    4.5978    4.4198 H         1 UNK         0.0000 
    102 H102        2.3157    5.2240    4.6962 H         1 UNK         0.0000 
    103 H103        2.8219    3.7281    5.4739 H         1 UNK         0.0000 
    104 H104       -0.8934   -2.3124    1.4380 H         1 UNK         0.0000 
    105 H105       -3.3376   -1.1054   -1.1302 H         1 UNK         0.0000 
    106 H106       -1.0797    0.8141    1.7699 H         1 UNK         0.0000 
    107 H107       -1.4036    0.5525    3.4403 H         1 UNK         0.0000 
    108 H108       -3.7998    1.2216    3.1343 H         1 UNK         0.0000 
    109 H109       -3.4151    1.7733    1.5132 H         1 UNK         0.0000 
    110 H110       -2.1093    2.7739    4.1039 H         1 UNK         0.0000 
    111 H111       -3.4482    3.5846    3.3237 H         1 UNK         0.0000 
    112 H112       -1.8281    5.1117    4.6617 H         1 UNK         0.0000 
    113 H113        0.0508    8.7724    3.5626 H         1 UNK         0.0000 
    114 H114        1.1159    7.4094    3.2120 H         1 UNK         0.0000 
    115 H115       -0.3392    7.6906    2.2450 H         1 UNK         0.0000 
    116 H116       -1.4095    8.4533    5.4974 H         1 UNK         0.0000 
    117 H117       -1.5749    6.8778    6.2068 H         1 UNK         0.0000 
    118 H118        0.0926    8.0695    7.4608 H         1 UNK         0.0000 
    119 H119        0.9397    6.8049    6.5955 H         1 UNK         0.0000 
    120 H120        1.9789    8.8589    6.4798 H         1 UNK         0.0000 
    121 H121        1.2374    4.2358   -4.1116 H         1 UNK         0.0000 
@<TRIPOS>BOND
     1    1    9 nc   
     2    1   11 nc   
     3    1   44 nc   
     4    1   46 nc   
     5    1   60 nc   
     6    1   62 nc   
     7    2    3 1    
     8    2   69 1    
     9    3    4 1    
    10    3   70 1    
    11    3   71 1    
    12    4   72 1    
    13    4   73 1    
    14    4    5 1    
    15    5    7 2    
    16    5    6 1    
    17    6   75 1    
    18    6   74 1    
    19    6   76 1    
    20    7    8 1    
    21    7  121 1    
    22    8   10 am   BACKBONE|DICT|INTERRES
    23    8    9 2    
    24   10   11 1    
    25   10   12 1    
    26   12   13 1    
    27   12   77 1    
    28   12   78 1    
    29   13   79 1    
    30   13   14 1    
    31   13   80 1    
    32   14   15 1    
    33   14   81 1    
    34   14   82 1    
    35   15   16 1    
    36   15   17 1    
    37   15   55 1    
    38   17   18 2    
    39   17   19 am   BACKBONE|DICT|INTERRES
    40   19   20 1    
    41   19   83 1    
    42   20   21 1    
    43   20   24 1    
    44   20   22 1    
    45   22   84 1    
    46   22   23 1    
    47   22   85 1    
    48   23   86 1    
    49   24   25 2    
    50   24   26 am   BACKBONE|DICT|INTERRES
    51   26   27 1    
    52   26   87 1    
    53   27   28 1    
    54   27   29 1    
    55   27   31 1    
    56   29   30 1    
    57   29   88 1    
    58   29   89 1    
    59   30   90 1    
    60   31   33 am   BACKBONE|DICT|INTERRES
    61   31   32 2    
    62   33   91 1    
    63   33   34 1    
    64   34   35 1    
    65   34   92 1    
    66   34   93 1    
    67   35   37 am   BACKBONE|DICT|INTERRES
    68   35   36 2    
    69   37   38 1    
    70   37   94 1    
    71   38   40 1    
    72   38   39 1    
    73   38   48 1    
    74   40   96 1    
    75   40   95 1    
    76   40   41 1    
    77   41   42 1    
    78   41   97 1    
    79   41   98 1    
    80   42  100 1    
    81   42   99 1    
    82   42   43 1    
    83   43   44 1    
    84   43   45 am   BACKBONE|DICT|INTERRES
    85   45   47 1    
    86   45   46 2    
    87   47  102 1    
    88   47  103 1    
    89   47  101 1    
    90   48   49 2    
    91   48   50 am   BACKBONE|DICT|INTERRES
    92   50   51 1    
    93   50  104 1    
    94   51   56 1    
    95   51   52 1    
    96   51   53 1    
    97   53   54 2    
    98   53   55 am   BACKBONE|DICT|INTERRES
    99   55  105 1    
   100   56   57 1    
   101   56  107 1    
   102   56  106 1    
   103   57  108 1    
   104   57   58 1    
   105   57  109 1    
   106   58  110 1    
   107   58   59 1    
   108   58  111 1    
   109   59   61 am   BACKBONE|DICT|INTERRES
   110   59   60 1    
   111   61   63 1    
   112   61   62 2    
   113   63   64 2    
   114   63  112 1    
   115   64   66 1    
   116   64   65 1    
   117   65  113 1    
   118   65  114 1    
   119   65  115 1    
   120   66  117 1    
   121   66   67 1    
   122   66  116 1    
   123   67  119 1    
   124   67  118 1    
   125   67   68 1    
   126   68  120 1    
@<TRIPOS>SUBSTRUCTURE
     1 UNK         1 GROUP             0       ****    0 ROOT    
@<TRIPOS>MOLECULE
058_c1
132   137    1
SMALL
USER_CHARGES


@<TRIPOS>ATOM
      1 Fe1        -1.0513    3.4730   -0.1211 Fe        1 UNK         0.0000 
      2 O2          2.9701    7.1190    7.1671 O.3       1 UNK         0.0000 
      3 C3          1.9546    7.0531    6.1854 C.3       1 UNK         0.0000 
      4 C4          2.1987    5.8240    5.2843 C.3       1 UNK         0.0000 
      5 C5          1.1373    5.4969    4.2257 C.2       1 UNK         0.0000 
      6 C6          0.0809    6.5758    3.9604 C.3       1 UNK         0.0000 
      7 C7          1.1871    4.2848    3.6124 C.2       1 UNK         0.0000 
      8 C8          0.2895    3.7956    2.5888 C.2       1 UNK         0.0000 
      9 O9         -0.2154    4.4752    1.6721 O.co2     1 UNK         0.0000 
     10 N10        -0.0542    2.4822    2.5779 N.am      1 UNK         0.0000 
     11 O11        -0.9398    2.1671    1.6763 O.co2     1 UNK         0.0000 
     12 C12         0.5051    1.3093    3.2934 C.3       1 UNK         0.0000 
     13 C13         0.8426    0.0618    2.4038 C.3       1 UNK         0.0000 
     14 C14        -0.2999   -0.6802    1.6288 C.3       1 UNK         0.0000 
     15 C15        -1.3396   -1.4751    2.4673 C.3       1 UNK         0.0000 
     16 H16        -1.2723   -1.0449    3.4677 H         1 UNK         0.0000 
     17 C17        -1.0613   -2.9743    2.7039 C.2       1 UNK         0.0000 
     18 O18        -1.8408   -3.5664    3.4447 O.2       1 UNK         0.0000 
     19 N19         0.0002   -3.5433    2.1049 N.am      1 UNK         0.0000 
     20 C20         0.4925   -4.9286    2.1470 C.3       1 UNK         0.0000 
     21 H21         1.4696   -4.8850    2.6274 H         1 UNK         0.0000 
     22 C22        -0.3824   -5.9121    2.9829 C.3       1 UNK         0.0000 
     23 O23         0.0740   -7.2574    2.9469 O.3       1 UNK         0.0000 
     24 C24         0.7859   -5.3174    0.6851 C.2       1 UNK         0.0000 
     25 O25         1.6128   -4.6384    0.0833 O.2       1 UNK         0.0000 
     26 N26         0.1103   -6.3530    0.1775 N.am      1 UNK         0.0000 
     27 C27         0.1353   -6.9691   -1.1591 C.3       1 UNK         0.0000 
     28 H28        -0.9103   -6.9542   -1.4752 H         1 UNK         0.0000 
     29 C29         0.4945   -8.4675   -1.0049 C.3       1 UNK         0.0000 
     30 O30         1.6478   -8.6602   -0.2019 O.3       1 UNK         0.0000 
     31 C31         0.8977   -6.2594   -2.3099 C.2       1 UNK         0.0000 
     32 O32         2.1053   -6.4313   -2.4638 O.2       1 UNK         0.0000 
     33 N33         0.1262   -5.5842   -3.1759 N.am      1 UNK         0.0000 
     34 C34         0.6514   -4.7888   -4.2893 C.3       1 UNK         0.0000 
     35 C35         0.5294   -3.3354   -3.8451 C.2       1 UNK         0.0000 
     36 O36         1.5523   -2.7299   -3.5589 O.2       1 UNK         0.0000 
     37 N37        -0.7250   -2.8460   -3.7316 N.am      1 UNK         0.0000 
     38 C38        -1.2121   -1.7073   -2.9229 C.3       1 UNK         0.0000 
     39 H39        -2.2866   -1.7088   -3.1146 H         1 UNK         0.0000 
     40 C40        -0.7042   -0.2937   -3.3587 C.3       1 UNK         0.0000 
     41 C41         0.7872    0.0966   -3.1356 C.3       1 UNK         0.0000 
     42 C42         1.1941    1.5860   -3.3837 C.3       1 UNK         0.0000 
     43 N43         0.6623    2.6239   -2.4793 N.am      1 UNK         0.0000 
     44 O44        -0.1300    2.1918   -1.5310 O.co2     1 UNK         0.0000 
     45 C45         0.9082    3.9602   -2.4554 C.2       1 UNK         0.0000 
     46 O46         0.2585    4.5565   -1.5826 O.co2     1 UNK         0.0000 
     47 C47         1.9441    4.5262   -3.2950 C.2       1 UNK         0.0000 
     48 C48         2.2472    5.8446   -3.4713 C.2       1 UNK         0.0000 
     49 C49         3.4528    6.2185   -4.3185 C.3       1 UNK         0.0000 
     50 C50         1.5110    7.0602   -2.8700 C.3       1 UNK         0.0000 
     51 C51         0.7097    7.9107   -3.8807 C.3       1 UNK         0.0000 
     52 O52         1.5631    8.7254   -4.6705 O.3       1 UNK         0.0000 
     53 C53        -1.0671   -2.0721   -1.4212 C.2       1 UNK         0.0000 
     54 O54        -0.0321   -2.5912   -1.0379 O.2       1 UNK         0.0000 
     55 N55        -2.0277   -1.9588   -0.4975 N.am      1 UNK         0.0000 
     56 C56        -3.3330   -1.3282   -0.3524 C.3       1 UNK         0.0000 
     57 H57        -4.0659   -1.9883   -0.8155 H         1 UNK         0.0000 
     58 C58        -3.6707   -1.3126    1.1611 C.2       1 UNK         0.0000 
     59 O59        -4.8648   -1.3429    1.4380 O.2       1 UNK         0.0000 
     60 N60        -2.7829   -1.2892    2.1853 N.am      1 UNK         0.0000 
     61 C61        -3.4890    0.0742   -1.0120 C.3       1 UNK         0.0000 
     62 C62        -4.6946    1.0195   -0.5731 C.3       1 UNK         0.0000 
     63 C63        -4.7276    2.4903   -1.1588 C.3       1 UNK         0.0000 
     64 N64        -3.6373    3.3780   -0.6843 N.am      1 UNK         0.0000 
     65 O65        -2.5245    2.7647   -0.4597 O.co2     1 UNK         0.0000 
     66 C66        -3.5043    4.7229   -0.5426 C.2       1 UNK         0.0000 
     67 O67        -2.2980    5.0206   -0.3589 O.co2     1 UNK         0.0000 
     68 C68        -4.6610    5.5138   -0.2005 C.2       1 UNK         0.0000 
     69 C69        -5.3537    6.3561   -1.0052 C.2       1 UNK         0.0000 
     70 C70        -6.5798    7.0435   -0.4000 C.3       1 UNK         0.0000 
     71 C71        -4.9775    6.6408   -2.4666 C.3       1 UNK         0.0000 
     72 C72        -5.7616    7.7456   -3.2033 C.3       1 UNK         0.0000 
     73 O73        -5.2221    7.9392   -4.4966 O.3       1 UNK         0.0000 
     74 H74         2.7924    7.8352    7.7852 H         1 UNK         0.0000 
     75 H75         1.9534    7.9746    5.6005 H         1 UNK         0.0000 
     76 H76         0.9840    6.9763    6.6772 H         1 UNK         0.0000 
     77 H77         3.1659    5.9294    4.7852 H         1 UNK         0.0000 
     78 H78         2.3033    4.9474    5.9297 H         1 UNK         0.0000 
     79 H79        -0.6700    6.3031    3.2217 H         1 UNK         0.0000 
     80 H80         0.5461    7.5007    3.6098 H         1 UNK         0.0000 
     81 H81        -0.4823    6.7927    4.8711 H         1 UNK         0.0000 
     82 H82         1.9611    3.5824    3.8772 H         1 UNK         0.0000 
     83 H83         1.3904    1.5530    3.8854 H         1 UNK         0.0000 
     84 H84        -0.2337    1.0190    4.0385 H         1 UNK         0.0000 
     85 H85         1.5672    0.3907    1.6600 H         1 UNK         0.0000 
     86 H86         1.3834   -0.6737    3.0007 H         1 UNK         0.0000 
     87 H87        -0.8370   -0.0347    0.9432 H         1 UNK         0.0000 
     88 H88         0.2415   -1.3334    0.9516 H         1 UNK         0.0000 
     89 H89         0.5296   -3.0053    1.4230 H         1 UNK         0.0000 
     90 H90        -0.4066   -5.5767    4.0237 H         1 UNK         0.0000 
     91 H91        -1.4150   -5.9006    2.6347 H         1 UNK         0.0000 
     92 H92        -0.2132   -7.7128    3.7422 H         1 UNK         0.0000 
     93 H93        -0.3271   -6.9219    0.8881 H         1 UNK         0.0000 
     94 H94         0.6253   -8.9335   -1.9864 H         1 UNK         0.0000 
     95 H95        -0.3268   -9.0062   -0.5307 H         1 UNK         0.0000 
     96 H96         2.2096   -9.3330   -0.5924 H         1 UNK         0.0000 
     97 H97        -0.8439   -5.4793   -2.9423 H         1 UNK         0.0000 
     98 H98         0.0880   -4.9619   -5.2033 H         1 UNK         0.0000 
     99 H99         1.6969   -5.0155   -4.5019 H         1 UNK         0.0000 
    100 H100       -1.4653   -3.4504   -4.0430 H         1 UNK         0.0000 
    101 H101       -1.3335    0.4279   -2.8440 H         1 UNK         0.0000 
    102 H102       -0.9403   -0.1484   -4.4132 H         1 UNK         0.0000 
    103 H103        1.3931   -0.4468   -3.8580 H         1 UNK         0.0000 
    104 H104        1.1272   -0.2305   -2.1522 H         1 UNK         0.0000 
    105 H105        0.9038    1.8496   -4.3994 H         1 UNK         0.0000 
    106 H106        2.2807    1.6389   -3.3505 H         1 UNK         0.0000 
    107 H107        4.1241    6.8701   -3.7549 H         1 UNK         0.0000 
    108 H108        3.1451    6.7508   -5.2212 H         1 UNK         0.0000 
    109 H109        4.0335    5.3501   -4.6377 H         1 UNK         0.0000 
    110 H110        0.8092    6.7795   -2.0871 H         1 UNK         0.0000 
    111 H111        2.2433    7.6872   -2.3544 H         1 UNK         0.0000 
    112 H112        0.0969    7.2589   -4.5072 H         1 UNK         0.0000 
    113 H113        0.0113    8.5582   -3.3457 H         1 UNK         0.0000 
    114 H114        1.0567    9.1534   -5.3667 H         1 UNK         0.0000 
    115 H115       -1.7395   -2.3271    0.3958 H         1 UNK         0.0000 
    116 H116       -3.2772   -1.2721    3.0607 H         1 UNK         0.0000 
    117 H117       -2.5108    0.4998   -0.8262 H         1 UNK         0.0000 
    118 H118       -3.5353   -0.0414   -2.0950 H         1 UNK         0.0000 
    119 H119       -5.6238    0.5146   -0.8575 H         1 UNK         0.0000 
    120 H120       -4.7387    1.1250    0.5124 H         1 UNK         0.0000 
    121 H121       -4.6173    2.4138   -2.2518 H         1 UNK         0.0000 
    122 H122       -5.7134    2.9479   -1.0063 H         1 UNK         0.0000 
    123 H123       -4.9807    5.3390    0.8175 H         1 UNK         0.0000 
    124 H124       -6.2892    7.5757    0.5068 H         1 UNK         0.0000 
    125 H125       -7.3340    6.3011   -0.1282 H         1 UNK         0.0000 
    126 H126       -7.0687    7.7685   -1.0460 H         1 UNK         0.0000 
    127 H127       -3.9195    6.9037   -2.4893 H         1 UNK         0.0000 
    128 H128       -5.0586    5.7101   -3.0332 H         1 UNK         0.0000 
    129 H129       -5.7136    8.6870   -2.6488 H         1 UNK         0.0000 
    130 H130       -6.8171    7.4718   -3.2877 H         1 UNK         0.0000 
    131 H131       -5.7571    8.5860   -4.9665 H         1 UNK         0.0000 
    132 H132        2.5356    3.7810   -3.7979 H         1 UNK         0.0000 
@<TRIPOS>BOND
     1    1    9 nc   
     2    1   11 nc   
     3    1   44 nc   
     4    1   46 nc   
     5    1   65 nc   
     6    1   67 nc   
     7    2   74 1    
     8    2    3 1    
     9    3   76 1    
    10    3    4 1    
    11    3   75 1    
    12    4   78 1    
    13    4    5 1    
    14    4   77 1    
    15    5    6 1    
    16    5    7 2    
    17    6   81 1    
    18    6   79 1    
    19    6   80 1    
    20    7   82 1    
    21    7    8 1    
    22    8    9 2    
    23    8   10 am   BACKBONE|DICT|INTERRES
    24   10   12 1    
    25   10   11 1    
    26   12   83 1    
    27   12   84 1    
    28   12   13 1    
    29   13   86 1    
    30   13   14 1    
    31   13   85 1    
    32   14   15 1    
    33   14   87 1    
    34   14   88 1    
    35   15   17 1    
    36   15   16 1    
    37   15   60 1    
    38   17   18 2    
    39   17   19 am   BACKBONE|DICT|INTERRES
    40   19   20 1    
    41   19   89 1    
    42   20   21 1    
    43   20   22 1    
    44   20   24 1    
    45   22   23 1    
    46   22   90 1    
    47   22   91 1    
    48   23   92 1    
    49   24   25 2    
    50   24   26 am   BACKBONE|DICT|INTERRES
    51   26   93 1    
    52   26   27 1    
    53   27   28 1    
    54   27   29 1    
    55   27   31 1    
    56   29   30 1    
    57   29   95 1    
    58   29   94 1    
    59   30   96 1    
    60   31   32 2    
    61   31   33 am   BACKBONE|DICT|INTERRES
    62   33   34 1    
    63   33   97 1    
    64   34   99 1    
    65   34   35 1    
    66   34   98 1    
    67   35   37 am   BACKBONE|DICT|INTERRES
    68   35   36 2    
    69   37   38 1    
    70   37  100 1    
    71   38   39 1    
    72   38   53 1    
    73   38   40 1    
    74   40   41 1    
    75   40  101 1    
    76   40  102 1    
    77   41  104 1    
    78   41   42 1    
    79   41  103 1    
    80   42  106 1    
    81   42   43 1    
    82   42  105 1    
    83   43   45 am   BACKBONE|DICT|INTERRES
    84   43   44 1    
    85   45   46 2    
    86   45   47 1    
    87   47   48 2    
    88   47  132 1    
    89   48   50 1    
    90   48   49 1    
    91   49  107 1    
    92   49  108 1    
    93   49  109 1    
    94   50  110 1    
    95   50  111 1    
    96   50   51 1    
    97   51  113 1    
    98   51   52 1    
    99   51  112 1    
   100   52  114 1    
   101   53   54 2    
   102   53   55 am   BACKBONE|DICT|INTERRES
   103   55   56 1    
   104   55  115 1    
   105   56   57 1    
   106   56   58 1    
   107   56   61 1    
   108   58   59 2    
   109   58   60 am   BACKBONE|DICT|INTERRES
   110   60  116 1    
   111   61  117 1    
   112   61   62 1    
   113   61  118 1    
   114   62  120 1    
   115   62   63 1    
   116   62  119 1    
   117   63   64 1    
   118   63  122 1    
   119   63  121 1    
   120   64   66 am   BACKBONE|DICT|INTERRES
   121   64   65 1    
   122   66   68 1    
   123   66   67 2    
   124   68  123 1    
   125   68   69 2    
   126   69   70 1    
   127   69   71 1    
   128   70  125 1    
   129   70  124 1    
   130   70  126 1    
   131   71  127 1    
   132   71   72 1    
   133   71  128 1    
   134   72  129 1    
   135   72   73 1    
   136   72  130 1    
   137   73  131 1    
@<TRIPOS>SUBSTRUCTURE
     1 UNK         1 GROUP             0       ****    0 ROOT    
@<TRIPOS>MOLECULE
059_c1
121   126    1
SMALL
USER_CHARGES


@<TRIPOS>ATOM
      1 Fe1        -0.4114   -3.4745   -0.9746 Fe        1 UNK         0.0000 
      2 C2         -3.6711   -3.2202   -4.0196 C.3       1 UNK         0.0000 
      3 C3         -2.5463   -2.9206   -3.0372 C.2       1 UNK         0.0000 
      4 O4         -2.1559   -3.7379   -2.1879 O.co2     1 UNK         0.0000 
      5 N5         -1.8878   -1.7383   -3.0095 N.am      1 UNK         0.0000 
      6 O6         -0.9572   -1.6348   -2.0914 O.co2     1 UNK         0.0000 
      7 C7         -2.0582   -0.6017   -3.9421 C.3       1 UNK         0.0000 
      8 C8         -0.9835    0.5305   -3.9375 C.3       1 UNK         0.0000 
      9 C9         -0.9009    1.3665   -2.6285 C.3       1 UNK         0.0000 
     10 C10         0.0368    2.6072   -2.6754 C.3       1 UNK         0.0000 
     11 H11        -0.1422    3.0194   -3.6697 H         1 UNK         0.0000 
     12 C12        -0.4057    3.7743   -1.7621 C.2       1 UNK         0.0000 
     13 O13        -1.2404    3.5664   -0.8949 O.2       1 UNK         0.0000 
     14 N14         0.1130    4.9808   -2.0508 N.am      1 UNK         0.0000 
     15 C15        -0.4345    6.2975   -1.6707 C.3       1 UNK         0.0000 
     16 H16         0.1942    7.0396   -2.1658 H         1 UNK         0.0000 
     17 C17        -1.8551    6.4494   -2.2568 C.3       1 UNK         0.0000 
     18 O18        -1.7830    6.3968   -3.6802 O.3       1 UNK         0.0000 
     19 C19        -0.4218    6.6263   -0.1594 C.2       1 UNK         0.0000 
     20 O20        -1.2440    6.1019    0.5773 O.2       1 UNK         0.0000 
     21 N21         0.4763    7.5494    0.2412 N.am      1 UNK         0.0000 
     22 C22         0.5891    8.2047    1.5639 C.3       1 UNK         0.0000 
     23 H23         1.6619    8.3645    1.6761 H         1 UNK         0.0000 
     24 C24        -0.0416    9.6202    1.5315 C.3       1 UNK         0.0000 
     25 O25        -1.3307    9.6487    0.9256 O.3       1 UNK         0.0000 
     26 C26         0.2497    7.3574    2.8150 C.2       1 UNK         0.0000 
     27 O27        -0.4228    7.8264    3.7344 O.2       1 UNK         0.0000 
     28 N28         0.7948    6.1377    2.8255 N.am      1 UNK         0.0000 
     29 C29         0.5000    5.1102    3.8198 C.3       1 UNK         0.0000 
     30 C30         0.2708    3.8014    3.0536 C.2       1 UNK         0.0000 
     31 O31        -0.7366    3.6596    2.3730 O.2       1 UNK         0.0000 
     32 N32         1.1944    2.8443    3.1701 N.am      1 UNK         0.0000 
     33 C33         1.1823    1.5811    2.4286 C.3       1 UNK         0.0000 
     34 H34         0.4647    1.6359    1.6082 H         1 UNK         0.0000 
     35 C35         0.8026    0.3992    3.3816 C.3       1 UNK         0.0000 
     36 C36         0.5719   -0.8726    2.5708 C.3       1 UNK         0.0000 
     37 C37        -0.1255   -2.1682    3.1401 C.3       1 UNK         0.0000 
     38 N38        -0.4742   -3.1232    2.0391 N.am      1 UNK         0.0000 
     39 O39        -0.4177   -2.5936    0.8443 O.co2     1 UNK         0.0000 
     40 C40        -0.7891   -4.4542    1.9877 C.2       1 UNK         0.0000 
     41 O41        -0.8314   -4.9051    0.8155 O.co2     1 UNK         0.0000 
     42 C42        -1.1807   -5.1799    3.1772 C.2       1 UNK         0.0000 
     43 C43        -1.6792   -6.4494    3.1868 C.2       1 UNK         0.0000 
     44 C44        -2.1387   -7.0833    4.4933 C.3       1 UNK         0.0000 
     45 C45        -1.8293   -7.3223    1.9193 C.3       1 UNK         0.0000 
     46 C46        -2.3515   -8.7637    2.0243 C.3       1 UNK         0.0000 
     47 O47        -3.7359   -8.7669    2.3092 O.3       1 UNK         0.0000 
     48 C48         2.6012    1.4592    1.8216 C.2       1 UNK         0.0000 
     49 O49         3.5467    1.6341    2.5873 O.2       1 UNK         0.0000 
     50 N50         2.8509    1.2173    0.5173 N.am      1 UNK         0.0000 
     51 C51         2.0606    0.8565   -0.6739 C.3       1 UNK         0.0000 
     52 H52         0.9961    0.8396   -0.4489 H         1 UNK         0.0000 
     53 C53         2.3884    1.8855   -1.7856 C.2       1 UNK         0.0000 
     54 O54         3.5698    2.1909   -1.9292 O.2       1 UNK         0.0000 
     55 N55         1.4923    2.3947   -2.6557 N.am      1 UNK         0.0000 
     56 C56         2.5611   -0.5589   -1.1298 C.3       1 UNK         0.0000 
     57 C57         2.2913   -1.0755   -2.5967 C.3       1 UNK         0.0000 
     58 C58         2.6052   -2.5964   -2.9438 C.3       1 UNK         0.0000 
     59 N59         1.7312   -3.6294   -2.3342 N.am      1 UNK         0.0000 
     60 O60         1.2571   -3.2651   -1.1738 O.co2     1 UNK         0.0000 
     61 C61         1.0435   -4.6746   -2.8828 C.2       1 UNK         0.0000 
     62 O62         0.1067   -4.9874   -2.1266 O.co2     1 UNK         0.0000 
     63 C63         1.2538   -5.2052   -4.2071 C.2       1 UNK         0.0000 
     64 C64         0.5937   -6.2750   -4.7487 C.2       1 UNK         0.0000 
     65 C65        -0.4254   -7.1803   -4.0296 C.3       1 UNK         0.0000 
     66 C66         0.8483   -6.6431   -6.2188 C.3       1 UNK         0.0000 
     67 C67         0.2069   -7.9497   -6.7501 C.3       1 UNK         0.0000 
     68 O68         0.5723   -8.1462   -8.1041 O.3       1 UNK         0.0000 
     69 H69        -3.3027   -3.2173   -5.0431 H         1 UNK         0.0000 
     70 H70        -4.1077   -4.1967   -3.8216 H         1 UNK         0.0000 
     71 H71        -4.4516   -2.4671   -3.9164 H         1 UNK         0.0000 
     72 H72        -3.0191   -0.1503   -3.7035 H         1 UNK         0.0000 
     73 H73        -2.1526   -0.9880   -4.9584 H         1 UNK         0.0000 
     74 H74        -1.2344    1.2134   -4.7449 H         1 UNK         0.0000 
     75 H75        -0.0163    0.1314   -4.2207 H         1 UNK         0.0000 
     76 H76        -0.6488    0.7585   -1.7678 H         1 UNK         0.0000 
     77 H77        -1.9185    1.6972   -2.4105 H         1 UNK         0.0000 
     78 H78         0.7931    5.0210   -2.7868 H         1 UNK         0.0000 
     79 H79        -2.2684    7.4190   -1.9694 H         1 UNK         0.0000 
     80 H80        -2.5419    5.6962   -1.8600 H         1 UNK         0.0000 
     81 H81        -1.8712    7.2844   -4.0278 H         1 UNK         0.0000 
     82 H82         1.0381    7.9780   -0.4716 H         1 UNK         0.0000 
     83 H83         0.5924   10.3028    0.9707 H         1 UNK         0.0000 
     84 H84        -0.0655   10.0418    2.5409 H         1 UNK         0.0000 
     85 H85        -1.9572   10.0617    1.5207 H         1 UNK         0.0000 
     86 H86         1.2196    5.8142    1.9730 H         1 UNK         0.0000 
     87 H87         1.3073    5.0340    4.5438 H         1 UNK         0.0000 
     88 H88        -0.4118    5.3281    4.3725 H         1 UNK         0.0000 
     89 H89         2.0430    2.9919    3.6931 H         1 UNK         0.0000 
     90 H90        -0.1192    0.6376    3.9110 H         1 UNK         0.0000 
     91 H91         1.5667    0.2218    4.1342 H         1 UNK         0.0000 
     92 H92         1.5095   -1.1668    2.1061 H         1 UNK         0.0000 
     93 H93        -0.0666   -0.4944    1.7770 H         1 UNK         0.0000 
     94 H94        -1.0459   -1.8760    3.6526 H         1 UNK         0.0000 
     95 H95         0.4970   -2.6309    3.9098 H         1 UNK         0.0000 
     96 H96        -3.2048   -7.3170    4.4359 H         1 UNK         0.0000 
     97 H97        -1.5891   -8.0022    4.7098 H         1 UNK         0.0000 
     98 H98        -2.0069   -6.4111    5.3431 H         1 UNK         0.0000 
     99 H99        -2.4538   -6.7999    1.1957 H         1 UNK         0.0000 
    100 H100       -0.8427   -7.3884    1.4645 H         1 UNK         0.0000 
    101 H101       -2.1932   -9.2690    1.0683 H         1 UNK         0.0000 
    102 H102       -1.7763   -9.3166    2.7656 H         1 UNK         0.0000 
    103 H103       -4.0526   -9.6707    2.3318 H         1 UNK         0.0000 
    104 H104        3.8214    1.3142    0.2624 H         1 UNK         0.0000 
    105 H105        1.9499    2.9181   -3.3785 H         1 UNK         0.0000 
    106 H106        2.1933   -1.2331   -0.3630 H         1 UNK         0.0000 
    107 H107        3.6380   -0.6084   -0.9910 H         1 UNK         0.0000 
    108 H108        2.9167   -0.4831   -3.2742 H         1 UNK         0.0000 
    109 H109        1.2712   -0.8450   -2.8737 H         1 UNK         0.0000 
    110 H110        2.6620   -2.7003   -4.0333 H         1 UNK         0.0000 
    111 H111        3.6212   -2.8013   -2.5899 H         1 UNK         0.0000 
    112 H112        1.9837   -4.6661   -4.7933 H         1 UNK         0.0000 
    113 H113       -0.6369   -6.9756   -2.9813 H         1 UNK         0.0000 
    114 H114       -1.3910   -7.1488   -4.5403 H         1 UNK         0.0000 
    115 H115       -0.0655   -8.2102   -4.0325 H         1 UNK         0.0000 
    116 H116        0.4798   -5.8240   -6.8436 H         1 UNK         0.0000 
    117 H117        1.9244   -6.6803   -6.4073 H         1 UNK         0.0000 
    118 H118        0.5256   -8.8122   -6.1614 H         1 UNK         0.0000 
    119 H119       -0.8826   -7.9014   -6.6824 H         1 UNK         0.0000 
    120 H120        0.2162   -8.9795   -8.4262 H         1 UNK         0.0000 
    121 H121       -1.0769   -4.6195    4.0866 H         1 UNK         0.0000 
@<TRIPOS>BOND
     1    1    4 nc   
     2    1    6 nc   
     3    1   39 nc   
     4    1   41 nc   
     5    1   60 nc   
     6    1   62 nc   
     7    2   71 1    
     8    2   70 1    
     9    2    3 1    
    10    2   69 1    
    11    3    4 2    
    12    3    5 am   BACKBONE|DICT|INTERRES
    13    5    6 1    
    14    5    7 1    
    15    7    8 1    
    16    7   72 1    
    17    7   73 1    
    18    8    9 1    
    19    8   74 1    
    20    8   75 1    
    21    9   77 1    
    22    9   76 1    
    23    9   10 1    
    24   10   11 1    
    25   10   12 1    
    26   10   55 1    
    27   12   13 2    
    28   12   14 am   BACKBONE|DICT|INTERRES
    29   14   15 1    
    30   14   78 1    
    31   15   16 1    
    32   15   19 1    
    33   15   17 1    
    34   17   79 1    
    35   17   80 1    
    36   17   18 1    
    37   18   81 1    
    38   19   21 am   BACKBONE|DICT|INTERRES
    39   19   20 2    
    40   21   22 1    
    41   21   82 1    
    42   22   24 1    
    43   22   23 1    
    44   22   26 1    
    45   24   84 1    
    46   24   25 1    
    47   24   83 1    
    48   25   85 1    
    49   26   28 am   BACKBONE|DICT|INTERRES
    50   26   27 2    
    51   28   29 1    
    52   28   86 1    
    53   29   88 1    
    54   29   87 1    
    55   29   30 1    
    56   30   32 am   BACKBONE|DICT|INTERRES
    57   30   31 2    
    58   32   89 1    
    59   32   33 1    
    60   33   34 1    
    61   33   35 1    
    62   33   48 1    
    63   35   90 1    
    64   35   91 1    
    65   35   36 1    
    66   36   37 1    
    67   36   92 1    
    68   36   93 1    
    69   37   94 1    
    70   37   95 1    
    71   37   38 1    
    72   38   39 1    
    73   38   40 am   BACKBONE|DICT|INTERRES
    74   40   42 1    
    75   40   41 2    
    76   42   43 2    
    77   42  121 1    
    78   43   44 1    
    79   43   45 1    
    80   44   97 1    
    81   44   98 1    
    82   44   96 1    
    83   45   46 1    
    84   45   99 1    
    85   45  100 1    
    86   46   47 1    
    87   46  102 1    
    88   46  101 1    
    89   47  103 1    
    90   48   49 2    
    91   48   50 am   BACKBONE|DICT|INTERRES
    92   50   51 1    
    93   50  104 1    
    94   51   52 1    
    95   51   53 1    
    96   51   56 1    
    97   53   54 2    
    98   53   55 am   BACKBONE|DICT|INTERRES
    99   55  105 1    
   100   56  107 1    
   101   56  106 1    
   102   56   57 1    
   103   57   58 1    
   104   57  108 1    
   105   57  109 1    
   106   58   59 1    
   107   58  111 1    
   108   58  110 1    
   109   59   61 am   BACKBONE|DICT|INTERRES
   110   59   60 1    
   111   61   62 2    
   112   61   63 1    
   113   63   64 2    
   114   63  112 1    
   115   64   65 1    
   116   64   66 1    
   117   65  115 1    
   118   65  113 1    
   119   65  114 1    
   120   66   67 1    
   121   66  116 1    
   122   66  117 1    
   123   67  119 1    
   124   67  118 1    
   125   67   68 1    
   126   68  120 1    
@<TRIPOS>SUBSTRUCTURE
     1 UNK         1 GROUP             0       ****    0 ROOT    
@<TRIPOS>MOLECULE
060_c1
137   142    1
SMALL
USER_CHARGES


@<TRIPOS>ATOM
      1 Fe1        -1.0919    2.7971   -1.1751 Fe        1 UNK         0.0000 
      2 O2          5.7711    4.7954   -6.8446 O.3       1 UNK         0.0000 
      3 C3          4.5153    5.0272   -6.2372 C.3       1 UNK         0.0000 
      4 C4          4.1424    3.8137   -5.3596 C.3       1 UNK         0.0000 
      5 C5          2.7873    3.8326   -4.6421 C.2       1 UNK         0.0000 
      6 C6          1.9797    5.1387   -4.7293 C.3       1 UNK         0.0000 
      7 C7          2.3894    2.7015   -4.0063 C.2       1 UNK         0.0000 
      8 C8          1.1630    2.5187   -3.2668 C.2       1 UNK         0.0000 
      9 O9          0.5151    3.4069   -2.6573 O.co2     1 UNK         0.0000 
     10 N10         0.6522    1.2648   -3.1412 N.am      1 UNK         0.0000 
     11 O11        -0.4184    1.2355   -2.4214 O.co2     1 UNK         0.0000 
     12 C12         1.2070   -0.0829   -3.4451 C.3       1 UNK         0.0000 
     13 C13         0.3682   -1.2341   -2.7877 C.3       1 UNK         0.0000 
     14 C14         0.6906   -2.6779   -3.1028 C.3       1 UNK         0.0000 
     15 C15        -0.2222   -3.6645   -2.3074 C.3       1 UNK         0.0000 
     16 H16        -0.0632   -3.5486   -1.2325 H         1 UNK         0.0000 
     17 C17         0.1399   -5.1050   -2.7432 C.2       1 UNK         0.0000 
     18 O18         0.6279   -5.2908   -3.8561 O.2       1 UNK         0.0000 
     19 N19        -0.1791   -6.1109   -1.9207 N.am      1 UNK         0.0000 
     20 C20        -0.0594   -7.5299   -2.2692 C.3       1 UNK         0.0000 
     21 H21        -0.6489   -7.7047   -3.1721 H         1 UNK         0.0000 
     22 C22         1.4023   -7.9475   -2.5848 C.3       1 UNK         0.0000 
     23 O23         2.2932   -7.7483   -1.4928 O.3       1 UNK         0.0000 
     24 C24        -0.7102   -8.3703   -1.1672 C.2       1 UNK         0.0000 
     25 O25        -1.6648   -9.0900   -1.4327 O.2       1 UNK         0.0000 
     26 N26        -0.1840   -8.2381    0.0547 N.am      1 UNK         0.0000 
     27 C27        -0.6501   -8.9222    1.2535 C.3       1 UNK         0.0000 
     28 H28        -1.4671   -9.6052    1.0101 H         1 UNK         0.0000 
     29 C29         0.5185   -9.7583    1.8134 C.3       1 UNK         0.0000 
     30 O30         1.6484   -8.9437    2.1013 O.3       1 UNK         0.0000 
     31 C31        -1.2088   -7.9069    2.2649 C.2       1 UNK         0.0000 
     32 O32        -2.3154   -8.0933    2.7592 O.2       1 UNK         0.0000 
     33 N33        -0.4432   -6.8439    2.5476 N.am      1 UNK         0.0000 
     34 C34        -0.8542   -5.7894    3.4602 C.3       1 UNK         0.0000 
     35 C35        -1.1524   -4.5304    2.6393 C.2       1 UNK         0.0000 
     36 O36        -0.3352   -4.1180    1.8181 O.2       1 UNK         0.0000 
     37 N37        -2.3010   -3.9041    2.9219 N.am      1 UNK         0.0000 
     38 C38        -2.7043   -2.5664    2.4999 C.3       1 UNK         0.0000 
     39 H39        -3.4009   -2.3759    3.3165 H         1 UNK         0.0000 
     40 C40        -1.7511   -1.4034    2.9285 C.3       1 UNK         0.0000 
     41 C41        -1.8987   -0.0550    2.2392 C.3       1 UNK         0.0000 
     42 C42        -0.9837    1.1211    2.7817 C.3       1 UNK         0.0000 
     43 N43        -0.7041    2.1708    1.7777 N.am      1 UNK         0.0000 
     44 O44        -0.7396    1.7213    0.5782 O.co2     1 UNK         0.0000 
     45 C45        -0.4806    3.5142    1.8094 C.2       1 UNK         0.0000 
     46 O46        -0.5278    4.0848    0.6870 O.co2     1 UNK         0.0000 
     47 C47         0.0182    4.0782    3.0424 C.2       1 UNK         0.0000 
     48 C48         0.1555    5.3889    3.3563 C.2       1 UNK         0.0000 
     49 C49        -0.3475    6.5854    2.5352 C.3       1 UNK         0.0000 
     50 C50         0.9018    5.7035    4.6481 C.3       1 UNK         0.0000 
     51 C51         0.9548    7.1598    5.1537 C.3       1 UNK         0.0000 
     52 O52         1.7386    7.1220    6.3382 O.3       1 UNK         0.0000 
     53 C53         1.9831    8.1853    7.1401 C.2       1 UNK         0.0000 
     54 O54         2.6680    8.0967    8.1542 O.2       1 UNK         0.0000 
     55 C55         1.3795    9.5410    6.7699 C.3       1 UNK         0.0000 
     56 C56        -3.8325   -2.5964    1.4141 C.2       1 UNK         0.0000 
     57 O57        -4.9368   -2.9448    1.8235 O.2       1 UNK         0.0000 
     58 N58        -3.7488   -2.3785    0.0863 N.am      1 UNK         0.0000 
     59 C59        -2.8097   -1.9123   -0.9301 C.3       1 UNK         0.0000 
     60 H60        -1.8345   -1.6804   -0.5013 H         1 UNK         0.0000 
     61 C61        -2.7608   -3.0754   -1.9747 C.2       1 UNK         0.0000 
     62 O62        -3.8472   -3.5311   -2.3263 O.2       1 UNK         0.0000 
     63 N63        -1.6608   -3.5544   -2.5984 N.am      1 UNK         0.0000 
     64 C64        -3.4737   -0.6756   -1.6919 C.3       1 UNK         0.0000 
     65 C65        -4.4322    0.2913   -0.9070 C.3       1 UNK         0.0000 
     66 C66        -4.8011    1.7004   -1.5823 C.3       1 UNK         0.0000 
     67 N67        -3.6962    2.6952   -1.7314 N.am      1 UNK         0.0000 
     68 O68        -2.5842    2.2369   -1.2549 O.co2     1 UNK         0.0000 
     69 C69        -3.4713    3.9858   -2.2140 C.2       1 UNK         0.0000 
     70 O70        -2.2702    4.3148   -1.9583 O.co2     1 UNK         0.0000 
     71 C71        -4.2754    4.8474   -3.0783 C.2       1 UNK         0.0000 
     72 C72        -5.5869    4.9711   -3.4262 C.2       1 UNK         0.0000 
     73 C73        -6.7792    4.1362   -2.9871 C.3       1 UNK         0.0000 
     74 C74        -5.9105    6.1361   -4.3935 C.3       1 UNK         0.0000 
     75 C75        -7.3773    6.4422   -4.7684 C.3       1 UNK         0.0000 
     76 O76        -7.4418    7.5872   -5.6120 O.3       1 UNK         0.0000 
     77 H77         5.9939    5.5221   -7.4313 H         1 UNK         0.0000 
     78 H78         4.5609    5.9372   -5.6363 H         1 UNK         0.0000 
     79 H79         3.7611    5.1786   -7.0109 H         1 UNK         0.0000 
     80 H80         4.9249    3.6602   -4.6109 H         1 UNK         0.0000 
     81 H81         4.1687    2.9195   -5.9885 H         1 UNK         0.0000 
     82 H82         1.7723    5.3946   -5.7704 H         1 UNK         0.0000 
     83 H83         2.5151    5.9676   -4.2611 H         1 UNK         0.0000 
     84 H84         1.0060    5.0992   -4.2558 H         1 UNK         0.0000 
     85 H85         3.0202    1.8268   -4.0258 H         1 UNK         0.0000 
     86 H86         1.2539   -0.2382   -4.5262 H         1 UNK         0.0000 
     87 H87         2.2406   -0.1467   -3.1030 H         1 UNK         0.0000 
     88 H88        -0.6673   -1.1058   -3.0916 H         1 UNK         0.0000 
     89 H89         0.4017   -1.1080   -1.7074 H         1 UNK         0.0000 
     90 H90         0.5748   -2.8191   -4.1786 H         1 UNK         0.0000 
     91 H91         1.7375   -2.8737   -2.8622 H         1 UNK         0.0000 
     92 H92        -0.6411   -5.9176   -1.0463 H         1 UNK         0.0000 
     93 H93         1.7888   -7.4392   -3.4704 H         1 UNK         0.0000 
     94 H94         1.4190   -9.0097   -2.8457 H         1 UNK         0.0000 
     95 H95         3.1929   -7.8723   -1.8043 H         1 UNK         0.0000 
     96 H96         0.6653   -7.6979    0.1540 H         1 UNK         0.0000 
     97 H97         0.1973  -10.2810    2.7170 H         1 UNK         0.0000 
     98 H98         0.8055  -10.5317    1.0984 H         1 UNK         0.0000 
     99 H99         2.3392   -9.4872    2.4851 H         1 UNK         0.0000 
    100 H100        0.4608   -6.7464    2.1097 H         1 UNK         0.0000 
    101 H101       -1.7078   -6.0758    4.0753 H         1 UNK         0.0000 
    102 H102       -0.0371   -5.5746    4.1460 H         1 UNK         0.0000 
    103 H103       -3.0013   -4.3829    3.4718 H         1 UNK         0.0000 
    104 H104       -1.8917   -1.2207    3.9947 H         1 UNK         0.0000 
    105 H105       -0.7101   -1.7203    2.8293 H         1 UNK         0.0000 
    106 H106       -1.6543   -0.3187    1.2154 H         1 UNK         0.0000 
    107 H107       -2.9316    0.2797    2.2281 H         1 UNK         0.0000 
    108 H108       -0.0128    0.7078    3.0755 H         1 UNK         0.0000 
    109 H109       -1.3997    1.5265    3.7020 H         1 UNK         0.0000 
    110 H110        0.3500    3.3333    3.7492 H         1 UNK         0.0000 
    111 H111       -1.0416    7.1878    3.1265 H         1 UNK         0.0000 
    112 H112       -0.8976    6.3133    1.6413 H         1 UNK         0.0000 
    113 H113        0.4761    7.2303    2.2181 H         1 UNK         0.0000 
    114 H114        0.5058    5.0635    5.4389 H         1 UNK         0.0000 
    115 H115        1.9282    5.3626    4.4917 H         1 UNK         0.0000 
    116 H116       -0.0581    7.5152    5.3710 H         1 UNK         0.0000 
    117 H117        1.4390    7.8022    4.4084 H         1 UNK         0.0000 
    118 H118        2.1864   10.2603    6.6472 H         1 UNK         0.0000 
    119 H119        0.7645    9.8848    7.5988 H         1 UNK         0.0000 
    120 H120        0.7723    9.5434    5.8648 H         1 UNK         0.0000 
    121 H121       -4.5861   -2.6756   -0.3844 H         1 UNK         0.0000 
    122 H122       -1.9170   -4.1872   -3.3395 H         1 UNK         0.0000 
    123 H123       -2.6918   -0.1150   -2.2052 H         1 UNK         0.0000 
    124 H124       -4.0896   -1.0406   -2.5187 H         1 UNK         0.0000 
    125 H125       -4.0062    0.4609    0.0794 H         1 UNK         0.0000 
    126 H126       -5.3559   -0.2660   -0.7108 H         1 UNK         0.0000 
    127 H127       -5.2472    1.5239   -2.5659 H         1 UNK         0.0000 
    128 H128       -5.5846    2.1021   -0.9282 H         1 UNK         0.0000 
    129 H129       -3.6134    5.5762   -3.5304 H         1 UNK         0.0000 
    130 H130       -7.2274    3.6316   -3.8473 H         1 UNK         0.0000 
    131 H131       -6.5341    3.3825   -2.2581 H         1 UNK         0.0000 
    132 H132       -7.5362    4.7682   -2.5219 H         1 UNK         0.0000 
    133 H133       -5.3449    5.9737   -5.3104 H         1 UNK         0.0000 
    134 H134       -5.4805    7.0392   -3.9621 H         1 UNK         0.0000 
    135 H135       -7.8221    5.5911   -5.2850 H         1 UNK         0.0000 
    136 H136       -7.9708    6.6340   -3.8744 H         1 UNK         0.0000 
    137 H137       -8.3598    7.7691   -5.8412 H         1 UNK         0.0000 
@<TRIPOS>BOND
     1    1    9 nc   
     2    1   11 nc   
     3    1   44 nc   
     4    1   46 nc   
     5    1   68 nc   
     6    1   70 nc   
     7    2    3 1    
     8    2   77 1    
     9    3   78 1    
    10    3    4 1    
    11    3   79 1    
    12    4    5 1    
    13    4   80 1    
    14    4   81 1    
    15    5    7 2    
    16    5    6 1    
    17    6   83 1    
    18    6   84 1    
    19    6   82 1    
    20    7    8 1    
    21    7   85 1    
    22    8   10 am   BACKBONE|DICT|INTERRES
    23    8    9 2    
    24   10   11 1    
    25   10   12 1    
    26   12   87 1    
    27   12   13 1    
    28   12   86 1    
    29   13   89 1    
    30   13   14 1    
    31   13   88 1    
    32   14   91 1    
    33   14   15 1    
    34   14   90 1    
    35   15   16 1    
    36   15   17 1    
    37   15   63 1    
    38   17   19 am   BACKBONE|DICT|INTERRES
    39   17   18 2    
    40   19   92 1    
    41   19   20 1    
    42   20   21 1    
    43   20   24 1    
    44   20   22 1    
    45   22   23 1    
    46   22   93 1    
    47   22   94 1    
    48   23   95 1    
    49   24   26 am   BACKBONE|DICT|INTERRES
    50   24   25 2    
    51   26   96 1    
    52   26   27 1    
    53   27   28 1    
    54   27   29 1    
    55   27   31 1    
    56   29   30 1    
    57   29   97 1    
    58   29   98 1    
    59   30   99 1    
    60   31   33 am   BACKBONE|DICT|INTERRES
    61   31   32 2    
    62   33   34 1    
    63   33  100 1    
    64   34  101 1    
    65   34  102 1    
    66   34   35 1    
    67   35   37 am   BACKBONE|DICT|INTERRES
    68   35   36 2    
    69   37  103 1    
    70   37   38 1    
    71   38   40 1    
    72   38   39 1    
    73   38   56 1    
    74   40  105 1    
    75   40  104 1    
    76   40   41 1    
    77   41   42 1    
    78   41  106 1    
    79   41  107 1    
    80   42  108 1    
    81   42  109 1    
    82   42   43 1    
    83   43   44 1    
    84   43   45 am   BACKBONE|DICT|INTERRES
    85   45   47 1    
    86   45   46 2    
    87   47   48 2    
    88   47  110 1    
    89   48   50 1    
    90   48   49 1    
    91   49  111 1    
    92   49  112 1    
    93   49  113 1    
    94   50   51 1    
    95   50  114 1    
    96   50  115 1    
    97   51  116 1    
    98   51   52 1    
    99   51  117 1    
   100   52   53 1    
   101   53   54 2    
   102   53   55 1    
   103   55  119 1    
   104   55  118 1    
   105   55  120 1    
   106   56   57 2    
   107   56   58 am   BACKBONE|DICT|INTERRES
   108   58   59 1    
   109   58  121 1    
   110   59   60 1    
   111   59   61 1    
   112   59   64 1    
   113   61   62 2    
   114   61   63 am   BACKBONE|DICT|INTERRES
   115   63  122 1    
   116   64   65 1    
   117   64  123 1    
   118   64  124 1    
   119   65  126 1    
   120   65  125 1    
   121   65   66 1    
   122   66  128 1    
   123   66   67 1    
   124   66  127 1    
   125   67   69 am   BACKBONE|DICT|INTERRES
   126   67   68 1    
   127   69   70 2    
   128   69   71 1    
   129   71   72 2    
   130   71  129 1    
   131   72   73 1    
   132   72   74 1    
   133   73  132 1    
   134   73  131 1    
   135   73  130 1    
   136   74  134 1    
   137   74   75 1    
   138   74  133 1    
   139   75  136 1    
   140   75   76 1    
   141   75  135 1    
   142   76  137 1    
@<TRIPOS>SUBSTRUCTURE
     1 UNK         1 GROUP             0       ****    0 ROOT    
@<TRIPOS>MOLECULE
061_c1
112   117    1
SMALL
USER_CHARGES


@<TRIPOS>ATOM
      1 Fe1        -0.5332   -3.2338    0.0091 Fe        1 UNK         0.0000 
      2 C2         -3.6245   -3.0894   -3.0184 C.3       1 UNK         0.0000 
      3 C3         -2.7816   -2.7646   -1.7769 C.2       1 UNK         0.0000 
      4 O4         -2.2803   -3.6826   -1.1076 O.co2     1 UNK         0.0000 
      5 N5         -2.4758   -1.4976   -1.3828 N.am      1 UNK         0.0000 
      6 O6         -1.7936   -1.2674   -0.2585 O.co2     1 UNK         0.0000 
      7 C7         -2.6397   -0.2924   -2.1993 C.3       1 UNK         0.0000 
      8 C8         -1.3274    0.4805   -2.5598 C.3       1 UNK         0.0000 
      9 C9         -1.1398    1.8324   -1.8095 C.3       1 UNK         0.0000 
     10 C10        -0.0157    2.7114   -2.4450 C.3       1 UNK         0.0000 
     11 H11        -0.1899    2.5036   -3.4994 H         1 UNK         0.0000 
     12 C12        -0.2230    4.2480   -2.5323 C.2       1 UNK         0.0000 
     13 O13        -0.3303    4.7478   -3.6512 O.2       1 UNK         0.0000 
     14 N14        -0.1866    4.9998   -1.4213 N.am      1 UNK         0.0000 
     15 C15         0.0361    6.4597   -1.5248 C.3       1 UNK         0.0000 
     16 H16         0.7102    6.6263   -2.3694 H         1 UNK         0.0000 
     17 C17        -1.2583    7.2690   -1.8618 C.3       1 UNK         0.0000 
     18 O18        -0.9673    8.4559   -2.5829 O.3       1 UNK         0.0000 
     19 C19         0.8568    6.9649   -0.3312 C.2       1 UNK         0.0000 
     20 O20         2.0761    7.0883   -0.4509 O.2       1 UNK         0.0000 
     21 N21         0.2146    7.2184    0.8175 N.am      1 UNK         0.0000 
     22 C22         0.8708    7.7000    2.0290 C.3       1 UNK         0.0000 
     23 H23         1.9556    7.7091    1.9114 H         1 UNK         0.0000 
     24 C24         0.4613    9.1760    2.2585 C.3       1 UNK         0.0000 
     25 O25        -0.9447    9.3784    2.2216 O.3       1 UNK         0.0000 
     26 C26         0.5686    6.7247    3.1772 C.2       1 UNK         0.0000 
     27 O27        -0.2316    7.0187    4.0599 O.2       1 UNK         0.0000 
     28 N28         1.1944    5.5397    3.1302 N.am      1 UNK         0.0000 
     29 C29         0.9850    4.4535    4.0733 C.3       1 UNK         0.0000 
     30 C30         1.9574    3.3684    3.6157 C.2       1 UNK         0.0000 
     31 O31         3.1345    3.6780    3.4381 O.2       1 UNK         0.0000 
     32 N32         1.5010    2.1145    3.4355 N.am      1 UNK         0.0000 
     33 C33         2.3894    0.9938    3.0824 C.3       1 UNK         0.0000 
     34 H34         3.2472    1.1564    3.7374 H         1 UNK         0.0000 
     35 C35         3.0571    1.0895    1.6896 C.2       1 UNK         0.0000 
     36 O36         4.2670    0.8841    1.6261 O.2       1 UNK         0.0000 
     37 N37         2.3453    1.5047    0.6287 N.am      1 UNK         0.0000 
     38 C38         2.0717    0.6795   -0.5728 C.3       1 UNK         0.0000 
     39 H39         1.0269    0.3760   -0.5649 H         1 UNK         0.0000 
     40 C40         2.3290    1.6225   -1.7709 C.2       1 UNK         0.0000 
     41 O41         3.4986    1.7428   -2.1133 O.2       1 UNK         0.0000 
     42 N42         1.4161    2.3498   -2.4430 N.am      1 UNK         0.0000 
     43 C43         2.9686   -0.6235   -0.6796 C.3       1 UNK         0.0000 
     44 C44         3.0587   -1.3940   -2.0361 C.3       1 UNK         0.0000 
     45 C45         3.0959   -2.9624   -1.9141 C.3       1 UNK         0.0000 
     46 N46         1.8258   -3.6260   -1.5364 N.am      1 UNK         0.0000 
     47 O47         0.8145   -2.7965   -1.3550 O.co2     1 UNK         0.0000 
     48 C48         1.6936   -4.9301   -1.1807 C.2       1 UNK         0.0000 
     49 O49         0.6610   -5.2166   -0.5527 O.co2     1 UNK         0.0000 
     50 C50         2.6911   -6.0166   -1.5506 C.3       1 UNK         0.0000 
     51 C51         1.9489   -0.4577    3.4653 C.3       1 UNK         0.0000 
     52 C52         0.4809   -0.7745    3.8844 C.3       1 UNK         0.0000 
     53 C53         0.2170   -2.3313    4.0093 C.3       1 UNK         0.0000 
     54 N54        -0.1122   -3.0501    2.7522 N.am      1 UNK         0.0000 
     55 O55         0.2818   -2.4238    1.6534 O.co2     1 UNK         0.0000 
     56 C56        -0.8170   -4.2203    2.6507 C.2       1 UNK         0.0000 
     57 O57        -1.1132   -4.5197    1.4856 O.co2     1 UNK         0.0000 
     58 C58        -1.1425   -5.1562    3.8458 C.3       1 UNK         0.0000 
     59 C59        -1.8348   -6.5382    3.5047 C.3       1 UNK         0.0000 
     60 C60        -3.3402   -6.5000    3.8267 C.3       1 UNK         0.0000 
     61 C61        -1.1117   -7.7379    4.1758 C.3       1 UNK         0.0000 
     62 C62        -1.7874   -9.1303    4.1085 C.3       1 UNK         0.0000 
     63 O63        -2.7575   -9.2714    5.1334 O.3       1 UNK         0.0000 
     64 H64        -3.9081   -4.1447   -3.0172 H         1 UNK         0.0000 
     65 H65        -4.5493   -2.5150   -2.9929 H         1 UNK         0.0000 
     66 H66        -3.1085   -2.8810   -3.9627 H         1 UNK         0.0000 
     67 H67        -3.3652    0.3515   -1.6990 H         1 UNK         0.0000 
     68 H68        -3.1387   -0.5543   -3.1325 H         1 UNK         0.0000 
     69 H69        -0.4641   -0.1543   -2.3454 H         1 UNK         0.0000 
     70 H70        -1.3264    0.6324   -3.6436 H         1 UNK         0.0000 
     71 H71        -2.0777    2.4025   -1.8890 H         1 UNK         0.0000 
     72 H72        -0.9717    1.6540   -0.7399 H         1 UNK         0.0000 
     73 H73        -0.0971    4.5688   -0.5132 H         1 UNK         0.0000 
     74 H74        -1.9636    6.6881   -2.4563 H         1 UNK         0.0000 
     75 H75        -1.7816    7.5809   -0.9573 H         1 UNK         0.0000 
     76 H76        -1.7605    8.7683   -3.0311 H         1 UNK         0.0000 
     77 H77        -0.7884    7.1433    0.8961 H         1 UNK         0.0000 
     78 H78         0.9208    9.7970    1.4875 H         1 UNK         0.0000 
     79 H79         0.8535    9.5326    3.2128 H         1 UNK         0.0000 
     80 H80        -1.1678   10.0588    2.8654 H         1 UNK         0.0000 
     81 H81         1.9117    5.3820    2.4342 H         1 UNK         0.0000 
     82 H82        -0.0591    4.1254    4.0888 H         1 UNK         0.0000 
     83 H83         1.2717    4.7665    5.0826 H         1 UNK         0.0000 
     84 H84         0.5197    1.9216    3.5271 H         1 UNK         0.0000 
     85 H85         2.8724    2.2766    0.2401 H         1 UNK         0.0000 
     86 H86         1.8897    2.8665   -3.1719 H         1 UNK         0.0000 
     87 H87         2.6532   -1.3093    0.1116 H         1 UNK         0.0000 
     88 H88         4.0050   -0.3512   -0.4575 H         1 UNK         0.0000 
     89 H89         3.9526   -1.0609   -2.5717 H         1 UNK         0.0000 
     90 H90         2.2343   -1.1493   -2.7007 H         1 UNK         0.0000 
     91 H91         3.3859   -3.3844   -2.8777 H         1 UNK         0.0000 
     92 H92         3.8990   -3.2834   -1.2302 H         1 UNK         0.0000 
     93 H93         3.2858   -5.7470   -2.4137 H         1 UNK         0.0000 
     94 H94         3.3469   -6.2726   -0.7244 H         1 UNK         0.0000 
     95 H95         2.1386   -6.9080   -1.8296 H         1 UNK         0.0000 
     96 H96         2.5902   -0.7728    4.2935 H         1 UNK         0.0000 
     97 H97         2.2437   -1.1278    2.6557 H         1 UNK         0.0000 
     98 H98        -0.2216   -0.3339    3.1756 H         1 UNK         0.0000 
     99 H99         0.2830   -0.3014    4.8526 H         1 UNK         0.0000 
    100 H100       -0.5314   -2.5259    4.7831 H         1 UNK         0.0000 
    101 H101        1.1229   -2.8142    4.3842 H         1 UNK         0.0000 
    102 H102       -1.7015   -4.6299    4.6229 H         1 UNK         0.0000 
    103 H103       -3.8093   -5.6355    3.3568 H         1 UNK         0.0000 
    104 H104       -3.8634   -7.3841    3.4559 H         1 UNK         0.0000 
    105 H105       -3.5229   -6.4567    4.9033 H         1 UNK         0.0000 
    106 H106       -0.8873   -7.5081    5.2191 H         1 UNK         0.0000 
    107 H107       -0.1466   -7.8366    3.6768 H         1 UNK         0.0000 
    108 H108       -2.2642   -9.2937    3.1373 H         1 UNK         0.0000 
    109 H109       -1.0322   -9.9172    4.1981 H         1 UNK         0.0000 
    110 H110       -2.9918  -10.1995    5.2420 H         1 UNK         0.0000 
    111 H111       -0.1712   -5.3516    4.3015 H         1 UNK         0.0000 
    112 H112       -1.7691   -6.7448    2.4381 H         1 UNK         0.0000 
@<TRIPOS>BOND
     1    1    4 nc   
     2    1    6 nc   
     3    1   47 nc   
     4    1   49 nc   
     5    1   55 nc   
     6    1   57 nc   
     7    2   65 1    
     8    2   64 1    
     9    2    3 1    
    10    2   66 1    
    11    3    5 am   BACKBONE|DICT|INTERRES
    12    3    4 2    
    13    5    6 1    
    14    5    7 1    
    15    7   67 1    
    16    7    8 1    
    17    7   68 1    
    18    8    9 1    
    19    8   69 1    
    20    8   70 1    
    21    9   10 1    
    22    9   71 1    
    23    9   72 1    
    24   10   11 1    
    25   10   42 1    
    26   10   12 1    
    27   12   14 am   BACKBONE|DICT|INTERRES
    28   12   13 2    
    29   14   15 1    
    30   14   73 1    
    31   15   16 1    
    32   15   19 1    
    33   15   17 1    
    34   17   75 1    
    35   17   18 1    
    36   17   74 1    
    37   18   76 1    
    38   19   21 am   BACKBONE|DICT|INTERRES
    39   19   20 2    
    40   21   77 1    
    41   21   22 1    
    42   22   23 1    
    43   22   24 1    
    44   22   26 1    
    45   24   25 1    
    46   24   79 1    
    47   24   78 1    
    48   25   80 1    
    49   26   28 am   BACKBONE|DICT|INTERRES
    50   26   27 2    
    51   28   29 1    
    52   28   81 1    
    53   29   30 1    
    54   29   83 1    
    55   29   82 1    
    56   30   31 2    
    57   30   32 am   BACKBONE|DICT|INTERRES
    58   32   84 1    
    59   32   33 1    
    60   33   34 1    
    61   33   51 1    
    62   33   35 1    
    63   35   36 2    
    64   35   37 am   BACKBONE|DICT|INTERRES
    65   37   38 1    
    66   37   85 1    
    67   38   39 1    
    68   38   40 1    
    69   38   43 1    
    70   40   41 2    
    71   40   42 am   BACKBONE|DICT|INTERRES
    72   42   86 1    
    73   43   87 1    
    74   43   44 1    
    75   43   88 1    
    76   44   89 1    
    77   44   45 1    
    78   44   90 1    
    79   45   92 1    
    80   45   46 1    
    81   45   91 1    
    82   46   48 am   BACKBONE|DICT|INTERRES
    83   46   47 1    
    84   48   50 1    
    85   48   49 2    
    86   50   94 1    
    87   50   93 1    
    88   50   95 1    
    89   51   52 1    
    90   51   97 1    
    91   51   96 1    
    92   52   98 1    
    93   52   99 1    
    94   52   53 1    
    95   53  101 1    
    96   53  100 1    
    97   53   54 1    
    98   54   55 1    
    99   54   56 am   BACKBONE|DICT|INTERRES
   100   56   58 1    
   101   56   57 2    
   102   58  102 1    
   103   58   59 1    
   104   58  111 1    
   105   59   60 1    
   106   59   61 1    
   107   59  112 1    
   108   60  103 1    
   109   60  105 1    
   110   60  104 1    
   111   61   62 1    
   112   61  106 1    
   113   61  107 1    
   114   62   63 1    
   115   62  108 1    
   116   62  109 1    
   117   63  110 1    
@<TRIPOS>SUBSTRUCTURE
     1 UNK         1 GROUP             0       ****    0 ROOT    
@<TRIPOS>MOLECULE
062_c1
110   115    1
SMALL
USER_CHARGES


@<TRIPOS>ATOM
      1 Fe1        -1.3591   -4.1426    0.2286 Fe        1 UNK         0.0000 
      2 C2         -2.4814   -4.7102    4.4284 C.3       1 UNK         0.0000 
      3 C3         -2.2527   -4.1366    3.0296 C.2       1 UNK         0.0000 
      4 O4         -2.5169   -4.7676    1.9837 O.co2     1 UNK         0.0000 
      5 N5         -1.6908   -2.9302    2.7896 N.am      1 UNK         0.0000 
      6 O6         -1.7372   -2.5456    1.5409 O.co2     1 UNK         0.0000 
      7 C7         -0.8017   -2.1492    3.7041 C.3       1 UNK         0.0000 
      8 C8          0.4100   -1.3255    3.1093 C.3       1 UNK         0.0000 
      9 C9          0.0920   -0.3961    1.9034 C.3       1 UNK         0.0000 
     10 C10         0.9999    0.8112    1.5252 C.3       1 UNK         0.0000 
     11 H11         1.1858    1.3495    2.4475 H         1 UNK         0.0000 
     12 C12         0.1881    1.7816    0.6362 C.2       1 UNK         0.0000 
     13 O13        -0.6627    1.2961   -0.0988 O.2       1 UNK         0.0000 
     14 N14         0.3603    3.1140    0.6371 N.am      1 UNK         0.0000 
     15 C15         1.3149    4.0540    1.2219 C.3       1 UNK         0.0000 
     16 H16         2.3301    3.6746    1.1135 H         1 UNK         0.0000 
     17 C17         1.0008    4.4137    2.6951 C.3       1 UNK         0.0000 
     18 O18         1.4109    3.4398    3.6334 O.3       1 UNK         0.0000 
     19 C19         1.1385    5.3272    0.3727 C.2       1 UNK         0.0000 
     20 O20         0.0491    5.8982    0.3809 O.2       1 UNK         0.0000 
     21 N21         2.1746    5.7532   -0.3651 N.am      1 UNK         0.0000 
     22 C22         2.1058    6.8426   -1.3552 C.3       1 UNK         0.0000 
     23 H23         3.0986    6.9454   -1.7980 H         1 UNK         0.0000 
     24 C24         1.7627    8.1957   -0.6869 C.3       1 UNK         0.0000 
     25 O25         2.7886    8.5571    0.2253 O.3       1 UNK         0.0000 
     26 C26         1.1604    6.4868   -2.5255 C.2       1 UNK         0.0000 
     27 O27         0.2488    7.2437   -2.8584 O.2       1 UNK         0.0000 
     28 N28         1.4018    5.3062   -3.1148 N.am      1 UNK         0.0000 
     29 C29         0.4940    4.6318   -4.0308 C.3       1 UNK         0.0000 
     30 C30         0.1383    3.3354   -3.3059 C.2       1 UNK         0.0000 
     31 O31        -0.3913    3.3846   -2.2002 O.2       1 UNK         0.0000 
     32 N32         0.4587    2.1856   -3.9115 N.am      1 UNK         0.0000 
     33 C33         0.2258    0.8286   -3.4125 C.3       1 UNK         0.0000 
     34 H34        -0.1233    0.8556   -2.3877 H         1 UNK         0.0000 
     35 C35        -0.8351    0.1501   -4.3251 C.3       1 UNK         0.0000 
     36 C36        -1.6416   -1.0156   -3.7181 C.3       1 UNK         0.0000 
     37 C37        -0.9817   -2.4124   -3.7273 C.3       1 UNK         0.0000 
     38 N38        -1.4967   -3.2737   -2.6538 N.am      1 UNK         0.0000 
     39 O39        -1.2518   -2.8451   -1.4321 O.co2     1 UNK         0.0000 
     40 C40        -2.1373   -4.4686   -2.7148 C.2       1 UNK         0.0000 
     41 O41        -2.3124   -4.9626   -1.5866 O.co2     1 UNK         0.0000 
     42 C42        -2.5207   -5.1629   -4.0180 C.3       1 UNK         0.0000 
     43 C43         1.6139    0.1764   -3.5329 C.2       1 UNK         0.0000 
     44 O44         2.1861    0.2880   -4.6196 O.2       1 UNK         0.0000 
     45 N45         2.2562   -0.4212   -2.5182 N.am      1 UNK         0.0000 
     46 C46         1.9095   -0.8974   -1.1745 C.3       1 UNK         0.0000 
     47 H47         0.8556   -0.7444   -0.9715 H         1 UNK         0.0000 
     48 C48         2.7894   -0.1048   -0.1685 C.2       1 UNK         0.0000 
     49 O49         3.9909   -0.0170   -0.4353 O.2       1 UNK         0.0000 
     50 N50         2.3289    0.4750    0.9672 N.am      1 UNK         0.0000 
     51 C51         2.2341   -2.4466   -1.1831 C.3       1 UNK         0.0000 
     52 C52         2.8345   -3.1703    0.0655 C.3       1 UNK         0.0000 
     53 C53         2.5484   -4.7279    0.1554 C.3       1 UNK         0.0000 
     54 N54         1.1438   -5.1322    0.3854 N.am      1 UNK         0.0000 
     55 O55         0.3542   -4.0862    0.5840 O.co2     1 UNK         0.0000 
     56 C56         0.4044   -6.2922    0.1837 C.2       1 UNK         0.0000 
     57 O57        -0.8128   -6.0143    0.2304 O.co2     1 UNK         0.0000 
     58 C58         0.7586   -7.6783   -0.0777 C.2       1 UNK         0.0000 
     59 C59         1.8645   -8.4684   -0.0347 C.2       1 UNK         0.0000 
     60 C60         3.3002   -8.0821    0.2262 C.3       1 UNK         0.0000 
     61 C61         1.6963   -9.9735   -0.2726 C.3       1 UNK         0.0000 
     62 C62         1.9520  -10.8518    0.9618 C.3       1 UNK         0.0000 
     63 O63         1.5882  -12.1767    0.6592 O.3       1 UNK         0.0000 
     64 H64        -3.5455   -4.6707    4.6440 H         1 UNK         0.0000 
     65 H65        -2.1526   -5.7446    4.5046 H         1 UNK         0.0000 
     66 H66        -1.9799   -4.1469    5.2053 H         1 UNK         0.0000 
     67 H67        -0.3827   -2.8095    4.4666 H         1 UNK         0.0000 
     68 H68        -1.4555   -1.4551    4.2316 H         1 UNK         0.0000 
     69 H69         0.8156   -0.7092    3.9138 H         1 UNK         0.0000 
     70 H70         1.1979   -2.0216    2.8227 H         1 UNK         0.0000 
     71 H71        -0.9123   -0.0132    2.1076 H         1 UNK         0.0000 
     72 H72         0.0154   -0.9986    1.0016 H         1 UNK         0.0000 
     73 H73        -0.2549    3.5857   -0.0167 H         1 UNK         0.0000 
     74 H74        -0.0582    4.6376    2.8300 H         1 UNK         0.0000 
     75 H75         1.5361    5.3323    2.9518 H         1 UNK         0.0000 
     76 H76         0.9923    3.6678    4.4691 H         1 UNK         0.0000 
     77 H77         3.0455    5.2562   -0.3060 H         1 UNK         0.0000 
     78 H78         0.7978    8.1878   -0.1806 H         1 UNK         0.0000 
     79 H79         1.6796    8.9743   -1.4463 H         1 UNK         0.0000 
     80 H80         2.5006    9.3552    0.6774 H         1 UNK         0.0000 
     81 H81         2.0996    4.7025   -2.7062 H         1 UNK         0.0000 
     82 H82        -0.4181    5.1997   -4.2194 H         1 UNK         0.0000 
     83 H83         0.9709    4.4484   -4.9944 H         1 UNK         0.0000 
     84 H84         1.0248    2.1900   -4.7483 H         1 UNK         0.0000 
     85 H85        -1.5728    0.9152   -4.5754 H         1 UNK         0.0000 
     86 H86        -0.3922   -0.1454   -5.2788 H         1 UNK         0.0000 
     87 H87        -2.5791   -1.1205   -4.2662 H         1 UNK         0.0000 
     88 H88        -1.9358   -0.7295   -2.7050 H         1 UNK         0.0000 
     89 H89        -1.0415   -2.8436   -4.7262 H         1 UNK         0.0000 
     90 H90         0.0912   -2.3192   -3.5502 H         1 UNK         0.0000 
     91 H91        -3.5979   -5.2820   -4.1050 H         1 UNK         0.0000 
     92 H92        -2.1818   -4.6358   -4.9005 H         1 UNK         0.0000 
     93 H93        -2.0686   -6.1498   -4.0496 H         1 UNK         0.0000 
     94 H94         3.2274   -0.5998   -2.7103 H         1 UNK         0.0000 
     95 H95         3.0594    0.9065    1.5067 H         1 UNK         0.0000 
     96 H96         1.3414   -2.9671   -1.5383 H         1 UNK         0.0000 
     97 H97         2.9757   -2.6468   -1.9456 H         1 UNK         0.0000 
     98 H98         3.9169   -3.0205    0.0550 H         1 UNK         0.0000 
     99 H99         2.4634   -2.7062    0.9905 H         1 UNK         0.0000 
    100 H100        2.9250   -5.2279   -0.7352 H         1 UNK         0.0000 
    101 H101        3.1147   -5.0824    1.0133 H         1 UNK         0.0000 
    102 H102        3.6813   -8.5961    1.1097 H         1 UNK         0.0000 
    103 H103        3.9145   -8.3555   -0.6381 H         1 UNK         0.0000 
    104 H104        3.4259   -7.0320    0.3960 H         1 UNK         0.0000 
    105 H105        0.6852  -10.1920   -0.6257 H         1 UNK         0.0000 
    106 H106        2.3525  -10.3044   -1.0788 H         1 UNK         0.0000 
    107 H107        2.9982  -10.8289    1.2558 H         1 UNK         0.0000 
    108 H108        1.3651  -10.5129    1.8121 H         1 UNK         0.0000 
    109 H109        1.8514  -12.7577    1.3804 H         1 UNK         0.0000 
    110 H110       -0.1580   -8.1834   -0.3431 H         1 UNK         0.0000 
@<TRIPOS>BOND
     1    1    4 nc   
     2    1    6 nc   
     3    1   39 nc   
     4    1   41 nc   
     5    1   55 nc   
     6    1   57 nc   
     7    2   64 1    
     8    2   66 1    
     9    2    3 1    
    10    2   65 1    
    11    3    4 2    
    12    3    5 am   BACKBONE|DICT|INTERRES
    13    5    7 1    
    14    5    6 1    
    15    7   68 1    
    16    7   67 1    
    17    7    8 1    
    18    8   69 1    
    19    8    9 1    
    20    8   70 1    
    21    9   71 1    
    22    9   10 1    
    23    9   72 1    
    24   10   11 1    
    25   10   12 1    
    26   10   50 1    
    27   12   13 2    
    28   12   14 am   BACKBONE|DICT|INTERRES
    29   14   15 1    
    30   14   73 1    
    31   15   16 1    
    32   15   17 1    
    33   15   19 1    
    34   17   74 1    
    35   17   75 1    
    36   17   18 1    
    37   18   76 1    
    38   19   20 2    
    39   19   21 am   BACKBONE|DICT|INTERRES
    40   21   77 1    
    41   21   22 1    
    42   22   23 1    
    43   22   24 1    
    44   22   26 1    
    45   24   78 1    
    46   24   25 1    
    47   24   79 1    
    48   25   80 1    
    49   26   27 2    
    50   26   28 am   BACKBONE|DICT|INTERRES
    51   28   81 1    
    52   28   29 1    
    53   29   30 1    
    54   29   82 1    
    55   29   83 1    
    56   30   31 2    
    57   30   32 am   BACKBONE|DICT|INTERRES
    58   32   33 1    
    59   32   84 1    
    60   33   34 1    
    61   33   35 1    
    62   33   43 1    
    63   35   36 1    
    64   35   85 1    
    65   35   86 1    
    66   36   88 1    
    67   36   37 1    
    68   36   87 1    
    69   37   90 1    
    70   37   38 1    
    71   37   89 1    
    72   38   40 am   BACKBONE|DICT|INTERRES
    73   38   39 1    
    74   40   42 1    
    75   40   41 2    
    76   42   91 1    
    77   42   93 1    
    78   42   92 1    
    79   43   45 am   BACKBONE|DICT|INTERRES
    80   43   44 2    
    81   45   46 1    
    82   45   94 1    
    83   46   51 1    
    84   46   47 1    
    85   46   48 1    
    86   48   50 am   BACKBONE|DICT|INTERRES
    87   48   49 2    
    88   50   95 1    
    89   51   52 1    
    90   51   96 1    
    91   51   97 1    
    92   52   98 1    
    93   52   99 1    
    94   52   53 1    
    95   53   54 1    
    96   53  101 1    
    97   53  100 1    
    98   54   55 1    
    99   54   56 am   BACKBONE|DICT|INTERRES
   100   56   57 2    
   101   56   58 1    
   102   58   59 2    
   103   58  110 1    
   104   59   60 1    
   105   59   61 1    
   106   60  104 1    
   107   60  102 1    
   108   60  103 1    
   109   61   62 1    
   110   61  105 1    
   111   61  106 1    
   112   62  107 1    
   113   62  108 1    
   114   62   63 1    
   115   63  109 1    
@<TRIPOS>SUBSTRUCTURE
     1 UNK         1 GROUP             0       ****    0 ROOT    
@<TRIPOS>MOLECULE
063_c1
113   118    1
SMALL
USER_CHARGES


@<TRIPOS>ATOM
      1 Fe1         0.3530    4.0365   -1.8402 Fe        1 UNK         0.0000 
      2 O2          1.3697   10.4426    2.3369 O.3       1 UNK         0.0000 
      3 C3          1.0406    9.6784    3.4858 C.3       1 UNK         0.0000 
      4 C4          1.4802    8.2063    3.3379 C.3       1 UNK         0.0000 
      5 C5          0.7889    7.3091    2.3007 C.2       1 UNK         0.0000 
      6 C6         -0.3204    7.9845    1.4819 C.3       1 UNK         0.0000 
      7 C7          1.1844    6.0063    2.1568 C.2       1 UNK         0.0000 
      8 C8          2.2774    5.3694    3.0356 C.3       1 UNK         0.0000 
      9 C9          0.7164    5.1744    1.0503 C.2       1 UNK         0.0000 
     10 O10         0.5038    5.6537   -0.0813 O.co2     1 UNK         0.0000 
     11 N11         0.8014    3.8147    1.0999 N.am      1 UNK         0.0000 
     12 O12         1.1459    3.1922   -0.0036 O.co2     1 UNK         0.0000 
     13 C13         0.3367    2.8909    2.1648 C.3       1 UNK         0.0000 
     14 C14        -0.4519    1.6234    1.6394 C.3       1 UNK         0.0000 
     15 C15        -0.5987    0.3891    2.5519 C.3       1 UNK         0.0000 
     16 C16        -1.0803   -0.8762    1.7588 C.3       1 UNK         0.0000 
     17 H17        -0.4178   -1.0678    0.9141 H         1 UNK         0.0000 
     18 C18        -1.0104   -2.1385    2.6511 C.2       1 UNK         0.0000 
     19 O19        -0.6816   -2.0279    3.8302 O.2       1 UNK         0.0000 
     20 N20        -1.4208   -3.2869    2.0900 N.am      1 UNK         0.0000 
     21 C21        -1.4973   -4.6330    2.6763 C.3       1 UNK         0.0000 
     22 H22        -2.4606   -5.0239    2.3469 H         1 UNK         0.0000 
     23 C23        -1.5016   -4.6821    4.2288 C.3       1 UNK         0.0000 
     24 O24        -1.8810   -5.9586    4.7087 O.3       1 UNK         0.0000 
     25 C25        -0.3847   -5.4985    2.0692 C.2       1 UNK         0.0000 
     26 O26         0.7929   -5.1983    2.2548 O.2       1 UNK         0.0000 
     27 N27        -0.7773   -6.5680    1.3572 N.am      1 UNK         0.0000 
     28 C28         0.1175   -7.5436    0.7185 C.3       1 UNK         0.0000 
     29 H29        -0.5125   -8.2124    0.1316 H         1 UNK         0.0000 
     30 C30         0.8277   -8.3924    1.7980 C.3       1 UNK         0.0000 
     31 O31        -0.1396   -9.1779    2.4821 O.3       1 UNK         0.0000 
     32 C32         1.0737   -6.8921   -0.3054 C.2       1 UNK         0.0000 
     33 O33         2.2621   -7.2032   -0.3543 O.2       1 UNK         0.0000 
     34 N34         0.5034   -5.9884   -1.1067 N.am      1 UNK         0.0000 
     35 C35         1.2208   -5.0403   -1.9446 C.3       1 UNK         0.0000 
     36 C36         0.3082   -3.8028   -2.0181 C.2       1 UNK         0.0000 
     37 O37        -0.3326   -3.4412   -1.0262 O.2       1 UNK         0.0000 
     38 N38         0.2217   -3.2112   -3.2206 N.am      1 UNK         0.0000 
     39 C39        -0.8250   -2.3042   -3.7239 C.3       1 UNK         0.0000 
     40 H40        -1.0645   -2.9377   -4.5822 H         1 UNK         0.0000 
     41 C41        -0.3652   -1.0844   -4.5883 C.3       1 UNK         0.0000 
     42 C42         0.3806    0.0486   -3.8599 C.3       1 UNK         0.0000 
     43 C43         1.0692    1.1539   -4.7642 C.3       1 UNK         0.0000 
     44 N44         1.4998    2.3968   -4.0743 N.am      1 UNK         0.0000 
     45 O45         1.5520    2.2679   -2.7663 O.co2     1 UNK         0.0000 
     46 C46         1.5249    3.6512   -4.5958 C.2       1 UNK         0.0000 
     47 O47         1.2892    4.6106   -3.8320 O.co2     1 UNK         0.0000 
     48 C48         1.9407    3.8906   -6.0334 C.3       1 UNK         0.0000 
     49 C49        -2.2453   -2.3854   -3.0672 C.2       1 UNK         0.0000 
     50 O50        -2.9730   -3.2859   -3.4791 O.2       1 UNK         0.0000 
     51 N51        -2.7345   -1.6385   -2.0584 N.am      1 UNK         0.0000 
     52 C52        -2.3995   -0.4570   -1.2557 C.3       1 UNK         0.0000 
     53 H53        -1.3240   -0.3184   -1.1339 H         1 UNK         0.0000 
     54 C54        -3.0829   -0.7424    0.1129 C.2       1 UNK         0.0000 
     55 O55        -4.2931   -0.9536    0.0761 O.2       1 UNK         0.0000 
     56 N56        -2.4746   -0.7668    1.3145 N.am      1 UNK         0.0000 
     57 C57        -3.0771    0.7856   -1.9403 C.3       1 UNK         0.0000 
     58 C58        -3.5576    1.9995   -1.0625 C.3       1 UNK         0.0000 
     59 C59        -3.6347    3.3847   -1.7952 C.3       1 UNK         0.0000 
     60 N60        -2.3126    4.0098   -2.0619 N.am      1 UNK         0.0000 
     61 O61        -1.2665    3.1866   -1.9922 O.co2     1 UNK         0.0000 
     62 C62        -2.0925    5.3311   -2.2841 C.2       1 UNK         0.0000 
     63 O63        -0.8789    5.6108   -2.3384 O.co2     1 UNK         0.0000 
     64 C64        -3.1991    6.3942   -2.4351 C.3       1 UNK         0.0000 
     65 H65         1.1128   11.3597    2.4745 H         1 UNK         0.0000 
     66 H66        -0.0269    9.7648    3.6988 H         1 UNK         0.0000 
     67 H67         1.5589   10.1263    4.3379 H         1 UNK         0.0000 
     68 H68         1.3869    7.7264    4.3126 H         1 UNK         0.0000 
     69 H69         2.5462    8.2229    3.1047 H         1 UNK         0.0000 
     70 H70        -0.9224    7.2980    0.8915 H         1 UNK         0.0000 
     71 H71        -1.0269    8.4950    2.1329 H         1 UNK         0.0000 
     72 H72         0.1180    8.7049    0.7913 H         1 UNK         0.0000 
     73 H73         2.6833    4.4383    2.6442 H         1 UNK         0.0000 
     74 H74         1.9027    5.1816    4.0348 H         1 UNK         0.0000 
     75 H75         3.1366    6.0264    3.1169 H         1 UNK         0.0000 
     76 H76        -0.2270    3.4045    2.9532 H         1 UNK         0.0000 
     77 H77         1.2392    2.5385    2.6698 H         1 UNK         0.0000 
     78 H78        -1.4361    1.9334    1.2968 H         1 UNK         0.0000 
     79 H79         0.0799    1.2342    0.7700 H         1 UNK         0.0000 
     80 H80         0.3755    0.1642    2.9955 H         1 UNK         0.0000 
     81 H81        -1.2700    0.5809    3.3965 H         1 UNK         0.0000 
     82 H82        -1.5868   -3.2697    1.0937 H         1 UNK         0.0000 
     83 H83        -0.5137   -4.4405    4.6273 H         1 UNK         0.0000 
     84 H84        -2.2050   -3.9573    4.6395 H         1 UNK         0.0000 
     85 H85        -1.4007   -6.1239    5.5253 H         1 UNK         0.0000 
     86 H86        -1.7497   -6.8257    1.3838 H         1 UNK         0.0000 
     87 H87         1.3845   -7.7762    2.5053 H         1 UNK         0.0000 
     88 H88         1.5531   -9.0674    1.3413 H         1 UNK         0.0000 
     89 H89        -0.1982  -10.0384    2.0612 H         1 UNK         0.0000 
     90 H90        -0.4655   -5.7521   -0.9516 H         1 UNK         0.0000 
     91 H91         1.3930   -5.4779   -2.9291 H         1 UNK         0.0000 
     92 H92         2.1897   -4.7791   -1.5139 H         1 UNK         0.0000 
     93 H93         0.7777   -3.6257   -3.9527 H         1 UNK         0.0000 
     94 H94        -1.2410   -0.6669   -5.0902 H         1 UNK         0.0000 
     95 H95         0.2777   -1.4669   -5.3876 H         1 UNK         0.0000 
     96 H96         1.1562   -0.4002   -3.2357 H         1 UNK         0.0000 
     97 H97        -0.3248    0.5320   -3.1861 H         1 UNK         0.0000 
     98 H98         1.9492    0.7193   -5.2415 H         1 UNK         0.0000 
     99 H99         0.4008    1.4036   -5.5930 H         1 UNK         0.0000 
    100 H100        2.0187    2.9746   -6.6172 H         1 UNK         0.0000 
    101 H101        1.2731    4.5953   -6.5121 H         1 UNK         0.0000 
    102 H102        2.9250    4.3423   -5.9851 H         1 UNK         0.0000 
    103 H103       -3.6434   -1.9572   -1.7551 H         1 UNK         0.0000 
    104 H104       -3.1100   -0.9200    2.0814 H         1 UNK         0.0000 
    105 H105       -3.9734    0.4479   -2.4654 H         1 UNK         0.0000 
    106 H106       -2.4303    1.1118   -2.7518 H         1 UNK         0.0000 
    107 H107       -2.9277    2.1427   -0.1918 H         1 UNK         0.0000 
    108 H108       -4.5435    1.7473   -0.6578 H         1 UNK         0.0000 
    109 H109       -4.1383    3.2432   -2.7483 H         1 UNK         0.0000 
    110 H110       -4.3089    4.0426   -1.2476 H         1 UNK         0.0000 
    111 H111       -3.0593    6.9454   -3.3604 H         1 UNK         0.0000 
    112 H112       -3.1533    7.1216   -1.6256 H         1 UNK         0.0000 
    113 H113       -4.2172    6.0066   -2.4682 H         1 UNK         0.0000 
@<TRIPOS>BOND
     1    1   10 nc   
     2    1   12 nc   
     3    1   45 nc   
     4    1   47 nc   
     5    1   61 nc   
     6    1   63 nc   
     7    2   65 1    
     8    2    3 1    
     9    3   66 1    
    10    3   67 1    
    11    3    4 1    
    12    4   68 1    
    13    4    5 1    
    14    4   69 1    
    15    5    6 1    
    16    5    7 2    
    17    6   71 1    
    18    6   70 1    
    19    6   72 1    
    20    7    8 1    
    21    7    9 1    
    22    8   74 1    
    23    8   73 1    
    24    8   75 1    
    25    9   11 am   BACKBONE|DICT|INTERRES
    26    9   10 2    
    27   11   13 1    
    28   11   12 1    
    29   13   77 1    
    30   13   76 1    
    31   13   14 1    
    32   14   15 1    
    33   14   78 1    
    34   14   79 1    
    35   15   80 1    
    36   15   81 1    
    37   15   16 1    
    38   16   17 1    
    39   16   18 1    
    40   16   56 1    
    41   18   19 2    
    42   18   20 am   BACKBONE|DICT|INTERRES
    43   20   21 1    
    44   20   82 1    
    45   21   22 1    
    46   21   23 1    
    47   21   25 1    
    48   23   83 1    
    49   23   84 1    
    50   23   24 1    
    51   24   85 1    
    52   25   26 2    
    53   25   27 am   BACKBONE|DICT|INTERRES
    54   27   28 1    
    55   27   86 1    
    56   28   29 1    
    57   28   30 1    
    58   28   32 1    
    59   30   87 1    
    60   30   31 1    
    61   30   88 1    
    62   31   89 1    
    63   32   33 2    
    64   32   34 am   BACKBONE|DICT|INTERRES
    65   34   35 1    
    66   34   90 1    
    67   35   92 1    
    68   35   36 1    
    69   35   91 1    
    70   36   37 2    
    71   36   38 am   BACKBONE|DICT|INTERRES
    72   38   39 1    
    73   38   93 1    
    74   39   40 1    
    75   39   49 1    
    76   39   41 1    
    77   41   42 1    
    78   41   94 1    
    79   41   95 1    
    80   42   97 1    
    81   42   96 1    
    82   42   43 1    
    83   43   44 1    
    84   43   98 1    
    85   43   99 1    
    86   44   45 1    
    87   44   46 am   BACKBONE|DICT|INTERRES
    88   46   47 2    
    89   46   48 1    
    90   48  102 1    
    91   48  100 1    
    92   48  101 1    
    93   49   51 am   BACKBONE|DICT|INTERRES
    94   49   50 2    
    95   51  103 1    
    96   51   52 1    
    97   52   53 1    
    98   52   54 1    
    99   52   57 1    
   100   54   56 am   BACKBONE|DICT|INTERRES
   101   54   55 2    
   102   56  104 1    
   103   57   58 1    
   104   57  105 1    
   105   57  106 1    
   106   58  107 1    
   107   58  108 1    
   108   58   59 1    
   109   59  110 1    
   110   59   60 1    
   111   59  109 1    
   112   60   62 am   BACKBONE|DICT|INTERRES
   113   60   61 1    
   114   62   63 2    
   115   62   64 1    
   116   64  113 1    
   117   64  112 1    
   118   64  111 1    
@<TRIPOS>SUBSTRUCTURE
     1 UNK         1 GROUP             0       ****    0 ROOT    
@<TRIPOS>MOLECULE
064_c1
135   140    1
SMALL
USER_CHARGES


@<TRIPOS>ATOM
      1 Fe1         0.5861   -3.1578   -0.3355 Fe        1 UNK         0.0000 
      2 O2         -2.8282   -7.7397   -5.4744 O.3       1 UNK         0.0000 
      3 C3         -3.6746   -6.6202   -5.2725 C.3       1 UNK         0.0000 
      4 C4         -3.0141   -5.3024   -5.7284 C.3       1 UNK         0.0000 
      5 C5         -1.9423   -4.7840   -4.7686 C.2       1 UNK         0.0000 
      6 C6         -0.6627   -5.6341   -4.7800 C.3       1 UNK         0.0000 
      7 C7         -2.1413   -3.6876   -3.9762 C.2       1 UNK         0.0000 
      8 C8         -3.4108   -2.8200   -3.9778 C.3       1 UNK         0.0000 
      9 C9         -1.2001   -3.3675   -2.9070 C.2       1 UNK         0.0000 
     10 O10        -0.6963   -4.2771   -2.2166 O.co2     1 UNK         0.0000 
     11 N11        -1.0821   -2.0701   -2.4918 N.am      1 UNK         0.0000 
     12 O12        -1.1117   -1.7902   -1.2069 O.co2     1 UNK         0.0000 
     13 C13        -0.7488   -0.8959   -3.3384 C.3       1 UNK         0.0000 
     14 C14         0.0215    0.2832   -2.6185 C.3       1 UNK         0.0000 
     15 C15         0.4241    1.4852   -3.4950 C.3       1 UNK         0.0000 
     16 C16         0.8814    2.8122   -2.7855 C.3       1 UNK         0.0000 
     17 H17         1.0977    3.3915   -3.6876 H         1 UNK         0.0000 
     18 C18        -0.2364    3.7479   -2.2567 C.2       1 UNK         0.0000 
     19 O19        -1.3674    3.2936   -2.1199 O.2       1 UNK         0.0000 
     20 N20         0.0666    5.0534   -2.0951 N.am      1 UNK         0.0000 
     21 C21        -0.9500    6.1208   -1.9667 C.3       1 UNK         0.0000 
     22 H22        -1.9394    5.6757   -1.8361 H         1 UNK         0.0000 
     23 C23        -0.9834    6.9337   -3.2870 C.3       1 UNK         0.0000 
     24 O24        -1.9745    7.9439   -3.3114 O.3       1 UNK         0.0000 
     25 C25        -0.7317    7.0070   -0.7224 C.2       1 UNK         0.0000 
     26 O26        -1.6086    7.0651    0.1355 O.2       1 UNK         0.0000 
     27 N27         0.4561    7.6388   -0.6052 N.am      1 UNK         0.0000 
     28 C28         0.9107    8.3987    0.5806 C.3       1 UNK         0.0000 
     29 H29         1.9848    8.5116    0.4306 H         1 UNK         0.0000 
     30 C30         0.3805    9.8642    0.6137 C.3       1 UNK         0.0000 
     31 O31        -1.0034   10.0472    0.3804 O.3       1 UNK         0.0000 
     32 C32         0.8723    7.5917    1.9010 C.2       1 UNK         0.0000 
     33 O33         0.7930    8.1433    2.9958 O.2       1 UNK         0.0000 
     34 N34         1.0133    6.2764    1.7253 N.am      1 UNK         0.0000 
     35 C35         0.9015    5.2231    2.7067 C.3       1 UNK         0.0000 
     36 C36         0.4300    4.0067    1.8811 C.2       1 UNK         0.0000 
     37 O37        -0.2426    4.1815    0.8697 O.2       1 UNK         0.0000 
     38 N38         0.7431    2.7546    2.2168 N.am      1 UNK         0.0000 
     39 C39         1.7516    2.3235    3.1746 C.3       1 UNK         0.0000 
     40 H40         1.9001    3.1233    3.8976 H         1 UNK         0.0000 
     41 C41         1.2872    1.1387    4.0784 C.3       1 UNK         0.0000 
     42 C42         1.0061   -0.0997    3.2464 C.3       1 UNK         0.0000 
     43 C43         0.2998   -1.3860    3.7983 C.3       1 UNK         0.0000 
     44 N44         0.1075   -2.4091    2.7238 N.am      1 UNK         0.0000 
     45 O45         0.0875   -1.8612    1.5106 O.co2     1 UNK         0.0000 
     46 C46         0.0331   -3.7655    2.8713 C.2       1 UNK         0.0000 
     47 O47         0.3417   -4.4843    1.9093 O.co2     1 UNK         0.0000 
     48 C48        -0.6466   -4.2911    4.0589 C.2       1 UNK         0.0000 
     49 C49        -0.8857   -5.5913    4.3821 C.2       1 UNK         0.0000 
     50 C50        -0.3834   -6.8304    3.6330 C.3       1 UNK         0.0000 
     51 C51        -1.7569   -5.8919    5.6107 C.3       1 UNK         0.0000 
     52 C52        -1.8321   -7.3525    6.0986 C.3       1 UNK         0.0000 
     53 O53        -2.6927   -7.4177    7.2200 O.3       1 UNK         0.0000 
     54 C54         3.1441    2.1398    2.5078 C.2       1 UNK         0.0000 
     55 O55         4.1064    2.3059    3.2440 O.2       1 UNK         0.0000 
     56 N56         3.3941    1.8935    1.1960 N.am      1 UNK         0.0000 
     57 C57         2.6926    1.4730   -0.0392 C.3       1 UNK         0.0000 
     58 H58         1.6327    1.2816    0.1257 H         1 UNK         0.0000 
     59 C59         2.9509    2.6125   -1.0857 C.2       1 UNK         0.0000 
     60 O60         4.0118    3.2175   -0.9646 O.2       1 UNK         0.0000 
     61 N61         2.2245    2.9513   -2.1811 N.am      1 UNK         0.0000 
     62 C62         3.4604    0.2039   -0.5904 C.3       1 UNK         0.0000 
     63 C63         3.8943   -0.9292    0.4081 C.3       1 UNK         0.0000 
     64 C64         4.3243   -2.3255   -0.1911 C.3       1 UNK         0.0000 
     65 N65         3.2637   -3.2124   -0.7632 N.am      1 UNK         0.0000 
     66 O66         2.2148   -2.4984   -1.1602 O.co2     1 UNK         0.0000 
     67 C67         3.1871   -4.5886   -0.6146 C.2       1 UNK         0.0000 
     68 O68         2.0518   -5.0699   -0.4825 O.co2     1 UNK         0.0000 
     69 C69         4.2555   -5.5815   -0.7478 C.2       1 UNK         0.0000 
     70 C70         5.5874   -5.5929   -1.0123 C.2       1 UNK         0.0000 
     71 C71         6.5130   -4.4006   -1.1804 C.3       1 UNK         0.0000 
     72 C72         6.1800   -6.9944   -1.2376 C.3       1 UNK         0.0000 
     73 C73         7.6667   -7.1738   -1.5715 C.3       1 UNK         0.0000 
     74 O74         7.8674   -8.5532   -1.7879 O.3       1 UNK         0.0000 
     75 H75        -2.6637   -7.8503   -6.4149 H         1 UNK         0.0000 
     76 H76        -3.9480   -6.5698   -4.2138 H         1 UNK         0.0000 
     77 H77        -4.6013   -6.7897   -5.8218 H         1 UNK         0.0000 
     78 H78        -2.5786   -5.4103   -6.7142 H         1 UNK         0.0000 
     79 H79        -3.7992   -4.5620   -5.8473 H         1 UNK         0.0000 
     80 H80        -0.8146   -6.5278   -4.1710 H         1 UNK         0.0000 
     81 H81         0.2140   -5.1181   -4.3814 H         1 UNK         0.0000 
     82 H82        -0.4101   -5.9488   -5.7875 H         1 UNK         0.0000 
     83 H83        -3.5361   -2.2054   -3.0828 H         1 UNK         0.0000 
     84 H84        -4.3015   -3.4422   -4.0028 H         1 UNK         0.0000 
     85 H85        -3.4263   -2.1511   -4.8364 H         1 UNK         0.0000 
     86 H86        -1.6765   -0.4930   -3.7465 H         1 UNK         0.0000 
     87 H87        -0.1933   -1.2079   -4.2271 H         1 UNK         0.0000 
     88 H88         0.9197   -0.1091   -2.1544 H         1 UNK         0.0000 
     89 H89        -0.6260    0.6685   -1.8280 H         1 UNK         0.0000 
     90 H90         1.1625    1.1959   -4.2447 H         1 UNK         0.0000 
     91 H91        -0.4640    1.7512   -4.0772 H         1 UNK         0.0000 
     92 H92         1.0258    5.3455   -2.1540 H         1 UNK         0.0000 
     93 H93        -1.1663    6.2607   -4.1255 H         1 UNK         0.0000 
     94 H94        -0.0191    7.4097   -3.4670 H         1 UNK         0.0000 
     95 H95        -1.8684    8.5010   -4.0859 H         1 UNK         0.0000 
     96 H96         1.1098    7.5822   -1.3620 H         1 UNK         0.0000 
     97 H97         0.9050   10.4512   -0.1394 H         1 UNK         0.0000 
     98 H98         0.6212   10.3277    1.5721 H         1 UNK         0.0000 
     99 H99        -1.4273   10.3446    1.1935 H         1 UNK         0.0000 
    100 H100        0.8814    5.9456    0.7800 H         1 UNK         0.0000 
    101 H101        0.1588    5.4724    3.4673 H         1 UNK         0.0000 
    102 H102        1.8723    5.0941    3.1808 H         1 UNK         0.0000 
    103 H103        0.3322    2.0246    1.6523 H         1 UNK         0.0000 
    104 H104        0.3945    1.4359    4.6279 H         1 UNK         0.0000 
    105 H105        2.0517    0.9194    4.8226 H         1 UNK         0.0000 
    106 H106        1.9336   -0.4167    2.7891 H         1 UNK         0.0000 
    107 H107        0.3625    0.2695    2.4537 H         1 UNK         0.0000 
    108 H108       -0.6840   -1.0995    4.1879 H         1 UNK         0.0000 
    109 H109        0.8352   -1.7894    4.6733 H         1 UNK         0.0000 
    110 H110       -1.0485   -3.5316    4.7115 H         1 UNK         0.0000 
    111 H111       -1.2204   -7.3704    3.1936 H         1 UNK         0.0000 
    112 H112        0.3157   -6.6327    2.8276 H         1 UNK         0.0000 
    113 H113        0.1492   -7.5048    4.3004 H         1 UNK         0.0000 
    114 H114       -1.4316   -5.2694    6.4424 H         1 UNK         0.0000 
    115 H115       -2.7728   -5.5761    5.3757 H         1 UNK         0.0000 
    116 H116       -2.2291   -8.0220    5.3256 H         1 UNK         0.0000 
    117 H117       -0.8465   -7.7356    6.3876 H         1 UNK         0.0000 
    118 H118       -2.7130   -8.3194    7.5620 H         1 UNK         0.0000 
    119 H119        4.3583    2.0759    0.9634 H         1 UNK         0.0000 
    120 H120        2.7807    3.5760   -2.7408 H         1 UNK         0.0000 
    121 H121        2.8910   -0.2026   -1.4176 H         1 UNK         0.0000 
    122 H122        4.3833    0.5381   -1.0718 H         1 UNK         0.0000 
    123 H123        3.1569   -1.0855    1.1835 H         1 UNK         0.0000 
    124 H124        4.7604   -0.5364    0.9371 H         1 UNK         0.0000 
    125 H125        4.9166   -2.8555    0.5610 H         1 UNK         0.0000 
    126 H126        5.0143   -2.0996   -0.9980 H         1 UNK         0.0000 
    127 H127        3.8303   -6.5778   -0.6708 H         1 UNK         0.0000 
    128 H128        6.6695   -3.9248   -0.2175 H         1 UNK         0.0000 
    129 H129        6.1121   -3.6905   -1.8982 H         1 UNK         0.0000 
    130 H130        7.5059   -4.6562   -1.5423 H         1 UNK         0.0000 
    131 H131        5.9606   -7.6079   -0.3665 H         1 UNK         0.0000 
    132 H132        5.6218   -7.4548   -2.0572 H         1 UNK         0.0000 
    133 H133        7.9616   -6.6504   -2.4862 H         1 UNK         0.0000 
    134 H134        8.3231   -6.8501   -0.7583 H         1 UNK         0.0000 
    135 H135        8.7747   -8.6862   -2.0685 H         1 UNK         0.0000 
@<TRIPOS>BOND
     1    1   10 nc   
     2    1   12 nc   
     3    1   45 nc   
     4    1   47 nc   
     5    1   66 nc   
     6    1   68 nc   
     7    2    3 1    
     8    2   75 1    
     9    3   76 1    
    10    3    4 1    
    11    3   77 1    
    12    4    5 1    
    13    4   78 1    
    14    4   79 1    
    15    5    6 1    
    16    5    7 2    
    17    6   80 1    
    18    6   81 1    
    19    6   82 1    
    20    7    9 1    
    21    7    8 1    
    22    8   84 1    
    23    8   83 1    
    24    8   85 1    
    25    9   11 am   BACKBONE|DICT|INTERRES
    26    9   10 2    
    27   11   12 1    
    28   11   13 1    
    29   13   14 1    
    30   13   86 1    
    31   13   87 1    
    32   14   88 1    
    33   14   89 1    
    34   14   15 1    
    35   15   16 1    
    36   15   90 1    
    37   15   91 1    
    38   16   17 1    
    39   16   61 1    
    40   16   18 1    
    41   18   19 2    
    42   18   20 am   BACKBONE|DICT|INTERRES
    43   20   21 1    
    44   20   92 1    
    45   21   22 1    
    46   21   25 1    
    47   21   23 1    
    48   23   24 1    
    49   23   93 1    
    50   23   94 1    
    51   24   95 1    
    52   25   27 am   BACKBONE|DICT|INTERRES
    53   25   26 2    
    54   27   28 1    
    55   27   96 1    
    56   28   29 1    
    57   28   30 1    
    58   28   32 1    
    59   30   31 1    
    60   30   98 1    
    61   30   97 1    
    62   31   99 1    
    63   32   34 am   BACKBONE|DICT|INTERRES
    64   32   33 2    
    65   34   35 1    
    66   34  100 1    
    67   35  102 1    
    68   35  101 1    
    69   35   36 1    
    70   36   37 2    
    71   36   38 am   BACKBONE|DICT|INTERRES
    72   38   39 1    
    73   38  103 1    
    74   39   40 1    
    75   39   41 1    
    76   39   54 1    
    77   41  104 1    
    78   41  105 1    
    79   41   42 1    
    80   42   43 1    
    81   42  106 1    
    82   42  107 1    
    83   43  108 1    
    84   43  109 1    
    85   43   44 1    
    86   44   45 1    
    87   44   46 am   BACKBONE|DICT|INTERRES
    88   46   48 1    
    89   46   47 2    
    90   48   49 2    
    91   48  110 1    
    92   49   51 1    
    93   49   50 1    
    94   50  113 1    
    95   50  111 1    
    96   50  112 1    
    97   51   52 1    
    98   51  114 1    
    99   51  115 1    
   100   52  117 1    
   101   52   53 1    
   102   52  116 1    
   103   53  118 1    
   104   54   55 2    
   105   54   56 am   BACKBONE|DICT|INTERRES
   106   56   57 1    
   107   56  119 1    
   108   57   58 1    
   109   57   59 1    
   110   57   62 1    
   111   59   60 2    
   112   59   61 am   BACKBONE|DICT|INTERRES
   113   61  120 1    
   114   62   63 1    
   115   62  121 1    
   116   62  122 1    
   117   63  124 1    
   118   63  123 1    
   119   63   64 1    
   120   64  125 1    
   121   64   65 1    
   122   64  126 1    
   123   65   67 am   BACKBONE|DICT|INTERRES
   124   65   66 1    
   125   67   68 2    
   126   67   69 1    
   127   69   70 2    
   128   69  127 1    
   129   70   71 1    
   130   70   72 1    
   131   71  128 1    
   132   71  129 1    
   133   71  130 1    
   134   72  131 1    
   135   72   73 1    
   136   72  132 1    
   137   73  134 1    
   138   73   74 1    
   139   73  133 1    
   140   74  135 1    
@<TRIPOS>SUBSTRUCTURE
     1 UNK         1 GROUP             0       ****    0 ROOT    
@<TRIPOS>MOLECULE
065_c1
139   144    1
SMALL
USER_CHARGES


@<TRIPOS>ATOM
      1 Fe1         0.3606    3.4765   -0.0662 Fe        1 UNK         0.0000 
      2 O2          5.3880    6.2235   -5.6787 O.3       1 UNK         0.0000 
      3 C3          4.1332    5.9946   -6.2994 C.3       1 UNK         0.0000 
      4 C4          2.9536    6.5441   -5.4698 C.3       1 UNK         0.0000 
      5 C5          2.5265    5.7219   -4.2496 C.2       1 UNK         0.0000 
      6 C6          3.5772    5.7805   -3.1246 C.3       1 UNK         0.0000 
      7 C7          1.3325    5.0507   -4.1940 C.2       1 UNK         0.0000 
      8 C8          0.3022    5.0255   -5.3231 C.3       1 UNK         0.0000 
      9 C9          0.9213    4.3546   -2.9824 C.2       1 UNK         0.0000 
     10 O10         0.8633    4.9569   -1.8950 O.co2     1 UNK         0.0000 
     11 N11         0.7902    2.9871   -2.9740 N.am      1 UNK         0.0000 
     12 O12         1.0751    2.3531   -1.8654 O.co2     1 UNK         0.0000 
     13 C13         0.1059    2.1107   -3.9593 C.3       1 UNK         0.0000 
     14 C14        -0.0650    0.5686   -3.6181 C.3       1 UNK         0.0000 
     15 C15        -1.0185    0.1939   -2.4274 C.3       1 UNK         0.0000 
     16 C16        -1.0400   -1.2789   -1.8668 C.3       1 UNK         0.0000 
     17 H17        -1.5964   -1.8607   -2.6038 H         1 UNK         0.0000 
     18 C18         0.3371   -1.9866   -1.7758 C.2       1 UNK         0.0000 
     19 O19         1.3538   -1.3574   -1.5187 O.2       1 UNK         0.0000 
     20 N20         0.3472   -3.3109   -1.9974 N.am      1 UNK         0.0000 
     21 C21         1.5627   -4.1319   -1.9617 C.3       1 UNK         0.0000 
     22 H22         2.4384   -3.5244   -1.7148 H         1 UNK         0.0000 
     23 C23         1.8002   -4.7487   -3.3707 C.3       1 UNK         0.0000 
     24 O24         2.9116   -5.6259   -3.4841 O.3       1 UNK         0.0000 
     25 C25         1.4187   -5.1541   -0.8242 C.2       1 UNK         0.0000 
     26 O26         2.1196   -5.0374    0.1730 O.2       1 UNK         0.0000 
     27 N27         0.4835   -6.1057   -0.9853 N.am      1 UNK         0.0000 
     28 C28         0.1102   -7.1675   -0.0439 C.3       1 UNK         0.0000 
     29 H29        -0.7339   -7.6553   -0.5340 H         1 UNK         0.0000 
     30 C30         1.1845   -8.2879    0.0661 C.3       1 UNK         0.0000 
     31 O31         2.3961   -7.8996    0.6849 O.3       1 UNK         0.0000 
     32 C32        -0.4840   -6.6477    1.2812 C.2       1 UNK         0.0000 
     33 O33        -1.7022   -6.7367    1.4406 O.2       1 UNK         0.0000 
     34 N34         0.3395   -6.1180    2.1882 N.am      1 UNK         0.0000 
     35 C35        -0.1069   -5.5268    3.4410 C.3       1 UNK         0.0000 
     36 C36         0.5283   -4.1437    3.5396 C.2       1 UNK         0.0000 
     37 O37         1.7199   -4.0629    3.8231 O.2       1 UNK         0.0000 
     38 N38        -0.2664   -3.0710    3.3848 N.am      1 UNK         0.0000 
     39 C39         0.1166   -1.7091    3.7770 C.3       1 UNK         0.0000 
     40 H40         0.4341   -1.8520    4.8137 H         1 UNK         0.0000 
     41 C41         1.4028   -1.0838    3.1327 C.3       1 UNK         0.0000 
     42 C42         1.6960    0.3944    3.5349 C.3       1 UNK         0.0000 
     43 C43         2.7308    1.1637    2.6414 C.3       1 UNK         0.0000 
     44 N44         2.1552    2.3700    2.0153 N.am      1 UNK         0.0000 
     45 O45         1.0843    2.0435    1.3392 O.co2     1 UNK         0.0000 
     46 C46         2.5561    3.6715    2.0536 C.2       1 UNK         0.0000 
     47 O47         1.8704    4.4866    1.4036 O.co2     1 UNK         0.0000 
     48 C48         3.8154    4.1634    2.7781 C.3       1 UNK         0.0000 
     49 C49         3.5856    5.1375    3.9627 C.3       1 UNK         0.0000 
     50 O50         2.8410    6.2677    3.5586 O.3       1 UNK         0.0000 
     51 C51         2.7727    4.4925    5.1022 C.3       1 UNK         0.0000 
     52 C52         4.9497    5.6859    4.4471 C.3       1 UNK         0.0000 
     53 C53         4.9206    6.7567    5.5569 C.3       1 UNK         0.0000 
     54 O54         6.2463    7.1342    5.8776 O.3       1 UNK         0.0000 
     55 C55        -1.0925   -0.7557    3.9630 C.2       1 UNK         0.0000 
     56 O56        -1.1854   -0.1930    5.0521 O.2       1 UNK         0.0000 
     57 N57        -2.0768   -0.5073    3.0782 N.am      1 UNK         0.0000 
     58 C58        -2.5116   -0.9191    1.7322 C.3       1 UNK         0.0000 
     59 H59        -2.8359   -1.9559    1.8381 H         1 UNK         0.0000 
     60 C60        -1.4685   -0.8782    0.5884 C.2       1 UNK         0.0000 
     61 O61        -0.4159   -0.3102    0.7816 O.2       1 UNK         0.0000 
     62 N62        -1.8135   -1.4077   -0.6065 N.am      1 UNK         0.0000 
     63 C63        -3.7574   -0.0384    1.3736 C.3       1 UNK         0.0000 
     64 C64        -3.5425    1.3970    0.7875 C.3       1 UNK         0.0000 
     65 C65        -2.7652    2.4766    1.6208 C.3       1 UNK         0.0000 
     66 N66        -2.0028    3.4509    0.7984 N.pl3     1 UNK         0.0000 
     67 O67        -1.2715    2.8514   -0.1200 O.co2     1 UNK         0.0000 
     68 C68        -1.7519    4.7577    1.0891 C.1       1 UNK         0.0000 
     69 O69        -0.7237    5.2057    0.5572 O.co2     1 UNK         0.0000 
     70 C70        -2.7187    5.5810    1.7900 C.2       1 UNK         0.0000 
     71 C71        -2.4535    7.0852    2.0180 C.3       1 UNK         0.0000 
     72 C72        -1.8875    7.8632    0.7935 C.3       1 UNK         0.0000 
     73 C73        -3.6735    7.8423    2.6184 C.3       1 UNK         0.0000 
     74 C74        -3.3360    8.8918    3.7006 C.3       1 UNK         0.0000 
     75 O75        -2.5288    9.9302    3.1827 O.3       1 UNK         0.0000 
     76 H76         5.4831    7.1594   -5.4863 H         1 UNK         0.0000 
     77 H77         4.0090    4.9251   -6.4890 H         1 UNK         0.0000 
     78 H78         4.1631    6.4812   -7.2808 H         1 UNK         0.0000 
     79 H79         2.1193    6.6686   -6.1535 H         1 UNK         0.0000 
     80 H80         3.1800    7.5560   -5.1440 H         1 UNK         0.0000 
     81 H81         4.5249    5.3570   -3.4545 H         1 UNK         0.0000 
     82 H82         3.3135    5.2361   -2.2193 H         1 UNK         0.0000 
     83 H83         3.7593    6.8151   -2.8330 H         1 UNK         0.0000 
     84 H84        -0.6436    4.5661   -5.0459 H         1 UNK         0.0000 
     85 H85         0.7055    4.4942   -6.1804 H         1 UNK         0.0000 
     86 H86         0.0635    6.0421   -5.6160 H         1 UNK         0.0000 
     87 H87         0.6724    2.1904   -4.8883 H         1 UNK         0.0000 
     88 H88        -0.8892    2.5073   -4.1874 H         1 UNK         0.0000 
     89 H89         0.9406    0.2037   -3.4249 H         1 UNK         0.0000 
     90 H90        -0.3952    0.0436   -4.5093 H         1 UNK         0.0000 
     91 H91        -2.0387    0.4479   -2.7181 H         1 UNK         0.0000 
     92 H92        -0.7879    0.8416   -1.5913 H         1 UNK         0.0000 
     93 H93        -0.5253   -3.7875   -2.1318 H         1 UNK         0.0000 
     94 H94         0.9164   -5.2859   -3.7148 H         1 UNK         0.0000 
     95 H95         1.9597   -3.9342   -4.0800 H         1 UNK         0.0000 
     96 H96         2.9462   -6.2069   -2.7199 H         1 UNK         0.0000 
     97 H97        -0.0658   -6.0882   -1.8249 H         1 UNK         0.0000 
     98 H98         0.7748   -9.1187    0.6429 H         1 UNK         0.0000 
     99 H99         1.4069   -8.6909   -0.9228 H         1 UNK         0.0000 
    100 H100        3.0415   -8.6099    0.6211 H         1 UNK         0.0000 
    101 H101        1.3286   -6.0378    1.9546 H         1 UNK         0.0000 
    102 H102       -1.1924   -5.4728    3.5389 H         1 UNK         0.0000 
    103 H103        0.2543   -6.1392    4.2688 H         1 UNK         0.0000 
    104 H104       -1.2445   -3.2053    3.1934 H         1 UNK         0.0000 
    105 H105        2.2710   -1.6601    3.4524 H         1 UNK         0.0000 
    106 H106        1.3792   -1.2102    2.0502 H         1 UNK         0.0000 
    107 H107        1.9718    0.4752    4.5854 H         1 UNK         0.0000 
    108 H108        0.7604    0.9475    3.4807 H         1 UNK         0.0000 
    109 H109        3.6443    1.3574    3.2055 H         1 UNK         0.0000 
    110 H110        3.0539    0.5225    1.8130 H         1 UNK         0.0000 
    111 H111        4.4373    4.6493    2.0271 H         1 UNK         0.0000 
    112 H112        4.4176    3.3256    3.1112 H         1 UNK         0.0000 
    113 H113        2.4134    6.6453    4.3280 H         1 UNK         0.0000 
    114 H114        3.3038    3.6343    5.5162 H         1 UNK         0.0000 
    115 H115        1.8082    4.1276    4.7449 H         1 UNK         0.0000 
    116 H116        2.5627    5.1751    5.9270 H         1 UNK         0.0000 
    117 H117        5.5739    4.8544    4.7802 H         1 UNK         0.0000 
    118 H118        5.4779    6.1172    3.5928 H         1 UNK         0.0000 
    119 H119        4.4124    6.3851    6.4492 H         1 UNK         0.0000 
    120 H120        4.3408    7.6293    5.2419 H         1 UNK         0.0000 
    121 H121        6.2337    7.8551    6.5169 H         1 UNK         0.0000 
    122 H122       -2.6671    0.2236    3.4345 H         1 UNK         0.0000 
    123 H123       -2.7117   -1.8493   -0.6832 H         1 UNK         0.0000 
    124 H124       -4.4313    0.0238    2.2281 H         1 UNK         0.0000 
    125 H125       -4.3220   -0.5888    0.6191 H         1 UNK         0.0000 
    126 H126       -4.5113    1.8262    0.5306 H         1 UNK         0.0000 
    127 H127       -3.0811    1.2532   -0.1845 H         1 UNK         0.0000 
    128 H128       -3.4104    2.9171    2.3773 H         1 UNK         0.0000 
    129 H129       -1.9994    1.9776    2.2127 H         1 UNK         0.0000 
    130 H130       -3.6361    5.1381    2.1504 H         1 UNK         0.0000 
    131 H131       -2.0980    8.9339    0.8163 H         1 UNK         0.0000 
    132 H132       -0.7997    7.7842    0.7389 H         1 UNK         0.0000 
    133 H133       -2.2881    7.4868   -0.1501 H         1 UNK         0.0000 
    134 H134       -4.3606    7.1345    3.0839 H         1 UNK         0.0000 
    135 H135       -4.2645    8.3114    1.8280 H         1 UNK         0.0000 
    136 H136       -4.2381    9.3020    4.1642 H         1 UNK         0.0000 
    137 H137       -2.7501    8.4242    4.4963 H         1 UNK         0.0000 
    138 H138       -3.0252   10.4192    2.5198 H         1 UNK         0.0000 
    139 H139       -1.6747    7.0991    2.7808 H         1 UNK         0.0000 
@<TRIPOS>BOND
     1    1   10 nc   
     2    1   12 nc   
     3    1   45 nc   
     4    1   47 nc   
     5    1   67 nc   
     6    1   69 nc   
     7    2    3 1    
     8    2   76 1    
     9    3    4 1    
    10    3   77 1    
    11    3   78 1    
    12    4   80 1    
    13    4    5 1    
    14    4   79 1    
    15    5    7 2    
    16    5    6 1    
    17    6   83 1    
    18    6   82 1    
    19    6   81 1    
    20    7    8 1    
    21    7    9 1    
    22    8   84 1    
    23    8   85 1    
    24    8   86 1    
    25    9   11 am   BACKBONE|DICT|INTERRES
    26    9   10 2    
    27   11   12 1    
    28   11   13 1    
    29   13   14 1    
    30   13   87 1    
    31   13   88 1    
    32   14   89 1    
    33   14   15 1    
    34   14   90 1    
    35   15   16 1    
    36   15   92 1    
    37   15   91 1    
    38   16   17 1    
    39   16   18 1    
    40   16   62 1    
    41   18   19 2    
    42   18   20 am   BACKBONE|DICT|INTERRES
    43   20   21 1    
    44   20   93 1    
    45   21   22 1    
    46   21   25 1    
    47   21   23 1    
    48   23   24 1    
    49   23   94 1    
    50   23   95 1    
    51   24   96 1    
    52   25   26 2    
    53   25   27 am   BACKBONE|DICT|INTERRES
    54   27   28 1    
    55   27   97 1    
    56   28   29 1    
    57   28   30 1    
    58   28   32 1    
    59   30   31 1    
    60   30   98 1    
    61   30   99 1    
    62   31  100 1    
    63   32   33 2    
    64   32   34 am   BACKBONE|DICT|INTERRES
    65   34   35 1    
    66   34  101 1    
    67   35  102 1    
    68   35   36 1    
    69   35  103 1    
    70   36   37 2    
    71   36   38 am   BACKBONE|DICT|INTERRES
    72   38   39 1    
    73   38  104 1    
    74   39   55 1    
    75   39   40 1    
    76   39   41 1    
    77   41  105 1    
    78   41   42 1    
    79   41  106 1    
    80   42  107 1    
    81   42   43 1    
    82   42  108 1    
    83   43  109 1    
    84   43   44 1    
    85   43  110 1    
    86   44   46 am   BACKBONE|DICT|INTERRES
    87   44   45 1    
    88   46   48 1    
    89   46   47 2    
    90   48  112 1    
    91   48   49 1    
    92   48  111 1    
    93   49   50 1    
    94   49   52 1    
    95   49   51 1    
    96   50  113 1    
    97   51  114 1    
    98   51  116 1    
    99   51  115 1    
   100   52  117 1    
   101   52   53 1    
   102   52  118 1    
   103   53   54 1    
   104   53  119 1    
   105   53  120 1    
   106   54  121 1    
   107   55   56 2    
   108   55   57 am   BACKBONE|DICT|INTERRES
   109   57  122 1    
   110   57   58 1    
   111   58   59 1    
   112   58   60 1    
   113   58   63 1    
   114   60   61 2    
   115   60   62 am   BACKBONE|DICT|INTERRES
   116   62  123 1    
   117   63  124 1    
   118   63   64 1    
   119   63  125 1    
   120   64   65 1    
   121   64  126 1    
   122   64  127 1    
   123   65  129 1    
   124   65  128 1    
   125   65   66 1    
   126   66   68 1    
   127   66   67 1    
   128   68   70 2    
   129   68   69 2    
   130   70  130 1    
   131   70   71 1    
   132   71   73 1    
   133   71   72 1    
   134   71  139 1    
   135   72  132 1    
   136   72  131 1    
   137   72  133 1    
   138   73  134 1    
   139   73   74 1    
   140   73  135 1    
   141   74  136 1    
   142   74  137 1    
   143   74   75 1    
   144   75  138 1    
@<TRIPOS>SUBSTRUCTURE
     1 UNK         1 GROUP             0       ****    0 ROOT    
@<TRIPOS>MOLECULE
066_c1
138   143    1
SMALL
USER_CHARGES


@<TRIPOS>ATOM
      1 Fe1        -0.8278    3.0080    0.1683 Fe        1 UNK         0.0000 
      2 O2          4.7637    6.2027   -6.0715 O.3       1 UNK         0.0000 
      3 C3          4.2437    5.2391   -5.1790 C.3       1 UNK         0.0000 
      4 C4          2.7173    5.2339   -5.3393 C.3       1 UNK         0.0000 
      5 C5          1.7930    4.4993   -4.3529 C.2       1 UNK         0.0000 
      6 C6          0.3377    4.9188   -4.6083 C.3       1 UNK         0.0000 
      7 C7          2.1213    3.6128   -3.3573 C.2       1 UNK         0.0000 
      8 C8          3.5012    3.0493   -2.9751 C.3       1 UNK         0.0000 
      9 C9          1.0960    3.1780   -2.4086 C.2       1 UNK         0.0000 
     10 O10         0.5781    4.0029   -1.6300 O.co2     1 UNK         0.0000 
     11 N11         0.7731    1.8516   -2.2774 N.am      1 UNK         0.0000 
     12 O12         0.1389    1.4363   -1.1938 O.co2     1 UNK         0.0000 
     13 C13         0.8181    0.8138   -3.3592 C.3       1 UNK         0.0000 
     14 C14         0.2658   -0.5923   -2.9261 C.3       1 UNK         0.0000 
     15 C15        -0.0699   -1.6425   -3.9799 C.3       1 UNK         0.0000 
     16 C16        -0.9188   -2.8455   -3.4531 C.3       1 UNK         0.0000 
     17 H17        -1.0594   -3.3964   -4.3859 H         1 UNK         0.0000 
     18 C18        -0.2018   -3.9585   -2.6564 C.2       1 UNK         0.0000 
     19 O19         0.9743   -3.8439   -2.3357 O.2       1 UNK         0.0000 
     20 N20        -0.9712   -5.0380   -2.4480 N.am      1 UNK         0.0000 
     21 C21        -0.6335   -6.4698   -2.4142 C.3       1 UNK         0.0000 
     22 H22        -1.4520   -6.8753   -1.8311 H         1 UNK         0.0000 
     23 C23        -0.7813   -7.0304   -3.8505 C.3       1 UNK         0.0000 
     24 O24         0.0677   -6.3650   -4.7699 O.3       1 UNK         0.0000 
     25 C25         0.7155   -6.9463   -1.8111 C.2       1 UNK         0.0000 
     26 O26         1.7688   -6.5908   -2.3278 O.2       1 UNK         0.0000 
     27 N27         0.7363   -7.8910   -0.8600 N.am      1 UNK         0.0000 
     28 C28        -0.3621   -8.5513   -0.1530 C.3       1 UNK         0.0000 
     29 H29        -1.2656   -8.6140   -0.7566 H         1 UNK         0.0000 
     30 C30         0.0717  -10.0172    0.0754 C.3       1 UNK         0.0000 
     31 O31         1.3749  -10.0968    0.6366 O.3       1 UNK         0.0000 
     32 C32        -0.7460   -7.8263    1.1529 C.2       1 UNK         0.0000 
     33 O33        -1.6789   -8.2775    1.8096 O.2       1 UNK         0.0000 
     34 N34        -0.0203   -6.7566    1.5130 N.am      1 UNK         0.0000 
     35 C35        -0.1335   -6.1082    2.8150 C.3       1 UNK         0.0000 
     36 C36        -1.1331   -4.9480    2.7879 C.2       1 UNK         0.0000 
     37 O37        -2.2353   -5.0864    3.3078 O.2       1 UNK         0.0000 
     38 N38        -0.7120   -3.7784    2.2795 N.am      1 UNK         0.0000 
     39 C39        -1.3541   -2.4972    2.6113 C.3       1 UNK         0.0000 
     40 H40        -1.7251   -2.5986    3.6337 H         1 UNK         0.0000 
     41 C41        -0.3118   -1.3397    2.6619 C.3       1 UNK         0.0000 
     42 C42        -0.4930   -0.3117    3.8363 C.3       1 UNK         0.0000 
     43 C43         0.5052    0.9208    3.8697 C.3       1 UNK         0.0000 
     44 N44         0.2779    1.9971    2.8760 N.am      1 UNK         0.0000 
     45 O45        -0.3904    1.5404    1.8568 O.co2     1 UNK         0.0000 
     46 C46         0.6697    3.3070    2.8991 C.2       1 UNK         0.0000 
     47 O47         0.2720    4.1225    2.0381 O.co2     1 UNK         0.0000 
     48 C48         1.7293    3.6951    3.7817 C.2       1 UNK         0.0000 
     49 C49         1.5852    4.0931    5.0601 C.2       1 UNK         0.0000 
     50 C50         0.2541    4.1512    5.8084 C.3       1 UNK         0.0000 
     51 C51         2.8420    4.5452    5.7914 C.3       1 UNK         0.0000 
     52 C52         2.6503    5.3712    7.0638 C.3       1 UNK         0.0000 
     53 O53         3.9318    5.7659    7.5083 O.3       1 UNK         0.0000 
     54 C54        -2.6025   -2.1973    1.7323 C.2       1 UNK         0.0000 
     55 O55        -3.6038   -1.7501    2.2848 O.2       1 UNK         0.0000 
     56 N56        -2.6330   -2.5803    0.4392 N.am      1 UNK         0.0000 
     57 C57        -2.5175   -1.6494   -0.7051 C.3       1 UNK         0.0000 
     58 H58        -1.4629   -1.4050   -0.7975 H         1 UNK         0.0000 
     59 C59        -3.0284   -2.4165   -1.9513 C.2       1 UNK         0.0000 
     60 O60        -4.1848   -2.8282   -1.9030 O.2       1 UNK         0.0000 
     61 N61        -2.3396   -2.6261   -3.0955 N.am      1 UNK         0.0000 
     62 C62        -3.3904   -0.3425   -0.5116 C.3       1 UNK         0.0000 
     63 C63        -3.5683    0.6795   -1.6998 C.3       1 UNK         0.0000 
     64 C64        -4.1653    2.1168   -1.3682 C.3       1 UNK         0.0000 
     65 N65        -3.2497    3.0802   -0.6968 N.am      1 UNK         0.0000 
     66 O66        -2.4821    2.4620    0.1538 O.co2     1 UNK         0.0000 
     67 C67        -3.0425    4.4066   -0.9573 C.2       1 UNK         0.0000 
     68 O68        -1.9640    4.8741   -0.5333 O.co2     1 UNK         0.0000 
     69 C69        -4.0478    5.3175   -1.6931 C.3       1 UNK         0.0000 
     70 C70        -5.1837    5.9075   -0.7964 C.3       1 UNK         0.0000 
     71 O71        -4.7306    6.2955    0.4814 O.3       1 UNK         0.0000 
     72 C72        -6.2863    4.8683   -0.5323 C.3       1 UNK         0.0000 
     73 C73        -5.7330    7.2120   -1.4277 C.3       1 UNK         0.0000 
     74 C74        -6.9473    7.9139   -0.7759 C.3       1 UNK         0.0000 
     75 O75        -6.6912    8.2515    0.5757 O.3       1 UNK         0.0000 
     76 H76         5.7254    6.1916   -6.0385 H         1 UNK         0.0000 
     77 H77         4.6788    4.2730   -5.4437 H         1 UNK         0.0000 
     78 H78         4.5511    5.5091   -4.1650 H         1 UNK         0.0000 
     79 H79         2.4143    6.2813   -5.2924 H         1 UNK         0.0000 
     80 H80         2.4770    4.9001   -6.3481 H         1 UNK         0.0000 
     81 H81        -0.3096    4.0455   -4.6853 H         1 UNK         0.0000 
     82 H82         0.2131    5.4987   -5.5229 H         1 UNK         0.0000 
     83 H83        -0.0155    5.5401   -3.7860 H         1 UNK         0.0000 
     84 H84         3.7518    3.3621   -1.9632 H         1 UNK         0.0000 
     85 H85         3.5123    1.9624   -2.9768 H         1 UNK         0.0000 
     86 H86         4.3314    3.3470   -3.5912 H         1 UNK         0.0000 
     87 H87         1.8209    0.7019   -3.7764 H         1 UNK         0.0000 
     88 H88         0.2192    1.1678   -4.2029 H         1 UNK         0.0000 
     89 H89         0.9376   -1.0282   -2.1851 H         1 UNK         0.0000 
     90 H90        -0.6809   -0.4079   -2.4394 H         1 UNK         0.0000 
     91 H91         0.8634   -2.0334   -4.3914 H         1 UNK         0.0000 
     92 H92        -0.5977   -1.1828   -4.8146 H         1 UNK         0.0000 
     93 H93        -1.9449   -4.8823   -2.6500 H         1 UNK         0.0000 
     94 H94        -1.8120   -6.9431   -4.1958 H         1 UNK         0.0000 
     95 H95        -0.5400   -8.0955   -3.8691 H         1 UNK         0.0000 
     96 H96         0.9433   -6.2900   -4.3586 H         1 UNK         0.0000 
     97 H97         1.6365   -8.2455   -0.5610 H         1 UNK         0.0000 
     98 H98         0.0720  -10.5507   -0.8768 H         1 UNK         0.0000 
     99 H99        -0.6410  -10.5396    0.7181 H         1 UNK         0.0000 
    100 H100        1.5616  -11.0169    0.8540 H         1 UNK         0.0000 
    101 H101        0.7318   -6.4619    0.9100 H         1 UNK         0.0000 
    102 H102        0.8472   -5.7436    3.1199 H         1 UNK         0.0000 
    103 H103       -0.4409   -6.8240    3.5812 H         1 UNK         0.0000 
    104 H104        0.1565   -3.7195    1.7740 H         1 UNK         0.0000 
    105 H105        0.6948   -1.7510    2.7332 H         1 UNK         0.0000 
    106 H106       -0.3350   -0.8630    1.6826 H         1 UNK         0.0000 
    107 H107       -0.3886   -0.8567    4.7696 H         1 UNK         0.0000 
    108 H108       -1.5130    0.0731    3.8307 H         1 UNK         0.0000 
    109 H109        0.5332    1.3396    4.8801 H         1 UNK         0.0000 
    110 H110        1.5128    0.5380    3.6972 H         1 UNK         0.0000 
    111 H111        2.7024    3.6679    3.3083 H         1 UNK         0.0000 
    112 H112       -0.5789    3.7616    5.2199 H         1 UNK         0.0000 
    113 H113       -0.0050    5.1798    6.0586 H         1 UNK         0.0000 
    114 H114        0.2991    3.5603    6.7209 H         1 UNK         0.0000 
    115 H115        3.4397    5.1366    5.0931 H         1 UNK         0.0000 
    116 H116        3.4349    3.6620    6.0194 H         1 UNK         0.0000 
    117 H117        2.1640    4.7799    7.8434 H         1 UNK         0.0000 
    118 H118        2.0410    6.2606    6.8815 H         1 UNK         0.0000 
    119 H119        3.8499    6.2418    8.3408 H         1 UNK         0.0000 
    120 H120       -3.4923   -3.0828    0.2580 H         1 UNK         0.0000 
    121 H121       -2.9486   -2.9658   -3.8234 H         1 UNK         0.0000 
    122 H122       -2.9945    0.1610    0.3658 H         1 UNK         0.0000 
    123 H123       -4.3935   -0.6528   -0.2091 H         1 UNK         0.0000 
    124 H124       -2.6352    0.7900   -2.2485 H         1 UNK         0.0000 
    125 H125       -4.2556    0.2046   -2.3990 H         1 UNK         0.0000 
    126 H126       -5.0107    1.9658   -0.6936 H         1 UNK         0.0000 
    127 H127       -4.6136    2.5364   -2.2751 H         1 UNK         0.0000 
    128 H128       -4.4431    4.8575   -2.6058 H         1 UNK         0.0000 
    129 H129       -3.4464    6.1621   -2.0387 H         1 UNK         0.0000 
    130 H130       -5.3674    6.9543    0.8137 H         1 UNK         0.0000 
    131 H131       -7.0992    5.2605    0.0809 H         1 UNK         0.0000 
    132 H132       -5.8910    4.0076    0.0084 H         1 UNK         0.0000 
    133 H133       -6.7106    4.5046   -1.4672 H         1 UNK         0.0000 
    134 H134       -5.9887    7.0047   -2.4651 H         1 UNK         0.0000 
    135 H135       -4.9217    7.9414   -1.4828 H         1 UNK         0.0000 
    136 H136       -7.2062    8.8176   -1.3364 H         1 UNK         0.0000 
    137 H137       -7.8205    7.2584   -0.7834 H         1 UNK         0.0000 
    138 H138       -7.3941    8.8350    0.8895 H         1 UNK         0.0000 
@<TRIPOS>BOND
     1    1   10 nc   
     2    1   12 nc   
     3    1   45 nc   
     4    1   47 nc   
     5    1   66 nc   
     6    1   68 nc   
     7    2   76 1    
     8    2    3 1    
     9    3   78 1    
    10    3    4 1    
    11    3   77 1    
    12    4   79 1    
    13    4    5 1    
    14    4   80 1    
    15    5    7 2    
    16    5    6 1    
    17    6   83 1    
    18    6   81 1    
    19    6   82 1    
    20    7    8 1    
    21    7    9 1    
    22    8   84 1    
    23    8   85 1    
    24    8   86 1    
    25    9   10 2    
    26    9   11 am   BACKBONE|DICT|INTERRES
    27   11   12 1    
    28   11   13 1    
    29   13   14 1    
    30   13   87 1    
    31   13   88 1    
    32   14   90 1    
    33   14   89 1    
    34   14   15 1    
    35   15   16 1    
    36   15   91 1    
    37   15   92 1    
    38   16   17 1    
    39   16   18 1    
    40   16   61 1    
    41   18   20 am   BACKBONE|DICT|INTERRES
    42   18   19 2    
    43   20   93 1    
    44   20   21 1    
    45   21   22 1    
    46   21   25 1    
    47   21   23 1    
    48   23   95 1    
    49   23   24 1    
    50   23   94 1    
    51   24   96 1    
    52   25   27 am   BACKBONE|DICT|INTERRES
    53   25   26 2    
    54   27   97 1    
    55   27   28 1    
    56   28   29 1    
    57   28   30 1    
    58   28   32 1    
    59   30   99 1    
    60   30   31 1    
    61   30   98 1    
    62   31  100 1    
    63   32   34 am   BACKBONE|DICT|INTERRES
    64   32   33 2    
    65   34   35 1    
    66   34  101 1    
    67   35  102 1    
    68   35  103 1    
    69   35   36 1    
    70   36   37 2    
    71   36   38 am   BACKBONE|DICT|INTERRES
    72   38   39 1    
    73   38  104 1    
    74   39   40 1    
    75   39   41 1    
    76   39   54 1    
    77   41  105 1    
    78   41   42 1    
    79   41  106 1    
    80   42   43 1    
    81   42  107 1    
    82   42  108 1    
    83   43  110 1    
    84   43  109 1    
    85   43   44 1    
    86   44   46 am   BACKBONE|DICT|INTERRES
    87   44   45 1    
    88   46   48 1    
    89   46   47 2    
    90   48   49 2    
    91   48  111 1    
    92   49   51 1    
    93   49   50 1    
    94   50  113 1    
    95   50  114 1    
    96   50  112 1    
    97   51  116 1    
    98   51   52 1    
    99   51  115 1    
   100   52   53 1    
   101   52  117 1    
   102   52  118 1    
   103   53  119 1    
   104   54   55 2    
   105   54   56 am   BACKBONE|DICT|INTERRES
   106   56   57 1    
   107   56  120 1    
   108   57   58 1    
   109   57   62 1    
   110   57   59 1    
   111   59   60 2    
   112   59   61 am   BACKBONE|DICT|INTERRES
   113   61  121 1    
   114   62  123 1    
   115   62  122 1    
   116   62   63 1    
   117   63   64 1    
   118   63  124 1    
   119   63  125 1    
   120   64  126 1    
   121   64   65 1    
   122   64  127 1    
   123   65   67 am   BACKBONE|DICT|INTERRES
   124   65   66 1    
   125   67   68 2    
   126   67   69 1    
   127   69   70 1    
   128   69  128 1    
   129   69  129 1    
   130   70   72 1    
   131   70   71 1    
   132   70   73 1    
   133   71  130 1    
   134   72  132 1    
   135   72  131 1    
   136   72  133 1    
   137   73   74 1    
   138   73  134 1    
   139   73  135 1    
   140   74  137 1    
   141   74   75 1    
   142   74  136 1    
   143   75  138 1    
@<TRIPOS>SUBSTRUCTURE
     1 UNK         1 GROUP             0       ****    0 ROOT    
@<TRIPOS>MOLECULE
067_c1
135   140    1
SMALL
USER_CHARGES


@<TRIPOS>ATOM
      1 Fe1         0.6960   -2.6477   -0.1207 Fe        1 UNK         0.0000 
      2 O2         -4.0360   -4.1852   -7.3217 O.3       1 UNK         0.0000 
      3 C3         -3.5072   -5.3584   -6.7278 C.3       1 UNK         0.0000 
      4 C4         -2.2039   -5.0472   -5.9529 C.3       1 UNK         0.0000 
      5 C5         -2.2444   -3.9506   -4.8522 C.3       1 UNK         0.0000 
      6 O6         -2.6181   -2.7560   -5.4843 O.3       1 UNK         0.0000 
      7 C7         -3.3886   -4.2298   -3.8430 C.3       1 UNK         0.0000 
      8 C8         -0.8291   -3.6888   -4.2443 C.3       1 UNK         0.0000 
      9 C9         -0.8466   -3.2576   -2.7649 C.2       1 UNK         0.0000 
     10 O10        -0.8202   -4.1743   -1.9327 O.co2     1 UNK         0.0000 
     11 N11        -0.9338   -1.9471   -2.3546 N.am      1 UNK         0.0000 
     12 O12        -1.3355   -1.5519   -1.1334 O.co2     1 UNK         0.0000 
     13 C13        -0.5915   -0.7980   -3.2227 C.3       1 UNK         0.0000 
     14 C14         0.3386    0.2650   -2.5561 C.3       1 UNK         0.0000 
     15 C15         0.7089    1.4219   -3.5009 C.3       1 UNK         0.0000 
     16 C16         1.5259    2.6410   -2.9682 C.3       1 UNK         0.0000 
     17 H17         1.7342    3.1403   -3.9167 H         1 UNK         0.0000 
     18 C18         0.7597    3.7561   -2.2289 C.2       1 UNK         0.0000 
     19 O19        -0.2435    3.4967   -1.5753 O.2       1 UNK         0.0000 
     20 N20         1.3132    4.9704   -2.3925 N.am      1 UNK         0.0000 
     21 C21         0.7333    6.3135   -2.2687 C.3       1 UNK         0.0000 
     22 H22         1.5943    6.9737   -2.3835 H         1 UNK         0.0000 
     23 C23        -0.1902    6.6062   -3.4789 C.3       1 UNK         0.0000 
     24 O24        -1.2227    5.6500   -3.6447 O.3       1 UNK         0.0000 
     25 C25         0.0790    6.7021   -0.9298 C.2       1 UNK         0.0000 
     26 O26        -0.9138    6.0978   -0.5261 O.2       1 UNK         0.0000 
     27 N27         0.6078    7.7760   -0.3159 N.am      1 UNK         0.0000 
     28 C28         0.0719    8.5605    0.8075 C.3       1 UNK         0.0000 
     29 H29         0.7998    9.3524    0.9945 H         1 UNK         0.0000 
     30 C30        -1.2514    9.2348    0.3910 C.3       1 UNK         0.0000 
     31 O31        -1.0127   10.1077   -0.7033 O.3       1 UNK         0.0000 
     32 C32        -0.0872    7.8267    2.1504 C.2       1 UNK         0.0000 
     33 O33         0.1318    8.4446    3.1895 O.2       1 UNK         0.0000 
     34 N34        -0.4794    6.5509    2.1196 N.am      1 UNK         0.0000 
     35 C35        -0.6019    5.7029    3.2857 C.3       1 UNK         0.0000 
     36 C36         0.6828    4.8867    3.3713 C.2       1 UNK         0.0000 
     37 O37         1.7400    5.4095    3.7101 O.2       1 UNK         0.0000 
     38 N38         0.5647    3.5843    3.1004 N.am      1 UNK         0.0000 
     39 C39         1.5885    2.5958    3.4191 C.3       1 UNK         0.0000 
     40 H40         2.2044    2.9795    4.2379 H         1 UNK         0.0000 
     41 C41         0.9458    1.2870    3.9520 C.3       1 UNK         0.0000 
     42 C42        -0.3222    0.7993    3.2024 C.3       1 UNK         0.0000 
     43 C43        -0.7679   -0.6344    3.6003 C.3       1 UNK         0.0000 
     44 N44        -0.1060   -1.7826    2.9208 N.am      1 UNK         0.0000 
     45 O45         1.0215   -1.4638    2.2600 O.co2     1 UNK         0.0000 
     46 C46        -0.6498   -3.0492    2.9345 C.2       1 UNK         0.0000 
     47 O47        -0.3351   -3.8960    2.0901 O.co2     1 UNK         0.0000 
     48 C48        -1.6047   -3.4070    3.9717 C.2       1 UNK         0.0000 
     49 C49        -1.7100   -4.6301    4.5584 C.2       1 UNK         0.0000 
     50 C50        -0.7670   -5.8211    4.3213 C.3       1 UNK         0.0000 
     51 C51        -2.8532   -4.8790    5.5481 C.3       1 UNK         0.0000 
     52 C52        -2.6970   -6.0551    6.5275 C.3       1 UNK         0.0000 
     53 O53        -3.8471   -6.1386    7.3533 O.3       1 UNK         0.0000 
     54 C54         2.5897    2.3022    2.2876 C.2       1 UNK         0.0000 
     55 O55         3.7319    1.9944    2.6157 O.2       1 UNK         0.0000 
     56 N56         2.1328    2.3312    1.0224 N.am      1 UNK         0.0000 
     57 C57         2.6726    1.5815   -0.1279 C.3       1 UNK         0.0000 
     58 H58         1.7603    1.2121   -0.5778 H         1 UNK         0.0000 
     59 C59         3.3571    2.4379   -1.2098 C.2       1 UNK         0.0000 
     60 O60         4.4172    2.9974   -0.9496 O.2       1 UNK         0.0000 
     61 N61         2.8978    2.4391   -2.4715 N.am      1 UNK         0.0000 
     62 C62         3.5183    0.3126    0.2278 C.3       1 UNK         0.0000 
     63 C63         4.1632   -0.4788   -0.9350 C.3       1 UNK         0.0000 
     64 C64         4.4507   -1.9752   -0.6265 C.3       1 UNK         0.0000 
     65 N65         3.2831   -2.8978   -0.6235 N.am      1 UNK         0.0000 
     66 O66         2.2992   -2.5024   -1.4408 O.co2     1 UNK         0.0000 
     67 C67         3.3139   -4.1164    0.0229 C.2       1 UNK         0.0000 
     68 O68         2.2996   -4.8115    0.1083 O.co2     1 UNK         0.0000 
     69 C69         4.5581   -4.6109    0.5678 C.2       1 UNK         0.0000 
     70 C70         5.3230   -5.5484   -0.0419 C.2       1 UNK         0.0000 
     71 C71         6.5676   -6.0743    0.6604 C.3       1 UNK         0.0000 
     72 C72         4.9943   -6.1398   -1.4275 C.3       1 UNK         0.0000 
     73 C73         5.9571   -7.1721   -2.0582 C.3       1 UNK         0.0000 
     74 O74         5.8558   -8.4342   -1.4212 O.3       1 UNK         0.0000 
     75 H75        -4.7778   -4.4221   -7.8912 H         1 UNK         0.0000 
     76 H76        -4.2725   -5.7536   -6.0562 H         1 UNK         0.0000 
     77 H77        -3.3251   -6.1138   -7.4958 H         1 UNK         0.0000 
     78 H78        -1.4194   -4.8073   -6.6714 H         1 UNK         0.0000 
     79 H79        -1.8778   -5.9781   -5.4876 H         1 UNK         0.0000 
     80 H80        -3.2511   -3.0174   -6.1763 H         1 UNK         0.0000 
     81 H81        -4.3613   -4.3331   -4.3197 H         1 UNK         0.0000 
     82 H82        -3.1983   -5.1392   -3.2717 H         1 UNK         0.0000 
     83 H83        -3.5068   -3.4173   -3.1237 H         1 UNK         0.0000 
     84 H84        -0.2784   -4.6329   -4.2591 H         1 UNK         0.0000 
     85 H85        -0.2215   -3.0529   -4.8862 H         1 UNK         0.0000 
     86 H86        -0.1272   -1.0979   -4.1619 H         1 UNK         0.0000 
     87 H87        -1.5271   -0.3286   -3.5321 H         1 UNK         0.0000 
     88 H88         1.2590   -0.2128   -2.2289 H         1 UNK         0.0000 
     89 H89        -0.1665    0.6819   -1.6831 H         1 UNK         0.0000 
     90 H90         1.2304    1.0117   -4.3662 H         1 UNK         0.0000 
     91 H91        -0.2282    1.8196   -3.8984 H         1 UNK         0.0000 
     92 H92         2.2115    4.9749   -2.8437 H         1 UNK         0.0000 
     93 H93        -0.6392    7.5970   -3.3799 H         1 UNK         0.0000 
     94 H94         0.3987    6.6281   -4.3964 H         1 UNK         0.0000 
     95 H95        -1.5877    5.4387   -2.7738 H         1 UNK         0.0000 
     96 H96         1.4112    8.2121   -0.7365 H         1 UNK         0.0000 
     97 H97        -1.6602    9.8127    1.2229 H         1 UNK         0.0000 
     98 H98        -2.0099    8.4973    0.1230 H         1 UNK         0.0000 
     99 H99        -1.1585   11.0137   -0.4122 H         1 UNK         0.0000 
    100 H100       -0.6643    6.1445    1.2026 H         1 UNK         0.0000 
    101 H101       -0.7276    6.2804    4.2054 H         1 UNK         0.0000 
    102 H102       -1.4819    5.0675    3.1811 H         1 UNK         0.0000 
    103 H103       -0.3188    3.2233    2.7814 H         1 UNK         0.0000 
    104 H104        1.7022    0.4985    3.9580 H         1 UNK         0.0000 
    105 H105        0.6913    1.4346    5.0027 H         1 UNK         0.0000 
    106 H106       -0.1868    0.8534    2.1229 H         1 UNK         0.0000 
    107 H107       -1.1323    1.4863    3.4390 H         1 UNK         0.0000 
    108 H108       -0.6363   -0.7541    4.6767 H         1 UNK         0.0000 
    109 H109       -1.8494   -0.6804    3.4456 H         1 UNK         0.0000 
    110 H110       -2.3013   -2.6335    4.2559 H         1 UNK         0.0000 
    111 H111        0.0958   -5.5994    3.6964 H         1 UNK         0.0000 
    112 H112       -0.3445   -6.1758    5.2596 H         1 UNK         0.0000 
    113 H113       -1.3009   -6.6453    3.8493 H         1 UNK         0.0000 
    114 H114       -3.0350   -3.9675    6.1172 H         1 UNK         0.0000 
    115 H115       -3.7516   -5.0451    4.9544 H         1 UNK         0.0000 
    116 H116       -2.5793   -6.9929    5.9796 H         1 UNK         0.0000 
    117 H117       -1.8028   -5.9259    7.1411 H         1 UNK         0.0000 
    118 H118       -3.7857   -6.9071    7.9293 H         1 UNK         0.0000 
    119 H119        1.2436    2.7771    0.8583 H         1 UNK         0.0000 
    120 H120        3.5932    2.7520   -3.1308 H         1 UNK         0.0000 
    121 H121        2.9063   -0.3461    0.8393 H         1 UNK         0.0000 
    122 H122        4.3614    0.5921    0.8584 H         1 UNK         0.0000 
    123 H123        5.1188   -0.0021   -1.1601 H         1 UNK         0.0000 
    124 H124        3.5911   -0.3873   -1.8572 H         1 UNK         0.0000 
    125 H125        4.9933   -2.0274    0.3227 H         1 UNK         0.0000 
    126 H126        5.1511   -2.3487   -1.3721 H         1 UNK         0.0000 
    127 H127        4.8327   -4.1996    1.5304 H         1 UNK         0.0000 
    128 H128        6.4882   -7.1510    0.8153 H         1 UNK         0.0000 
    129 H129        7.4633   -5.8599    0.0814 H         1 UNK         0.0000 
    130 H130        6.6963   -5.6235    1.6448 H         1 UNK         0.0000 
    131 H131        3.9939   -6.5740   -1.3918 H         1 UNK         0.0000 
    132 H132        4.9186   -5.2987   -2.1174 H         1 UNK         0.0000 
    133 H133        6.9891   -6.8178   -2.0316 H         1 UNK         0.0000 
    134 H134        5.7076   -7.3058   -3.1135 H         1 UNK         0.0000 
    135 H135        6.4537   -9.0612   -1.8423 H         1 UNK         0.0000 
@<TRIPOS>BOND
     1    1   10 nc   
     2    1   12 nc   
     3    1   45 nc   
     4    1   47 nc   
     5    1   66 nc   
     6    1   68 nc   
     7    2    3 1    
     8    2   75 1    
     9    3   76 1    
    10    3    4 1    
    11    3   77 1    
    12    4   79 1    
    13    4    5 1    
    14    4   78 1    
    15    5    6 1    
    16    5    8 1    
    17    5    7 1    
    18    6   80 1    
    19    7   82 1    
    20    7   83 1    
    21    7   81 1    
    22    8   84 1    
    23    8    9 1    
    24    8   85 1    
    25    9   11 am   BACKBONE|DICT|INTERRES
    26    9   10 2    
    27   11   12 1    
    28   11   13 1    
    29   13   14 1    
    30   13   86 1    
    31   13   87 1    
    32   14   88 1    
    33   14   89 1    
    34   14   15 1    
    35   15   16 1    
    36   15   90 1    
    37   15   91 1    
    38   16   17 1    
    39   16   61 1    
    40   16   18 1    
    41   18   19 2    
    42   18   20 am   BACKBONE|DICT|INTERRES
    43   20   21 1    
    44   20   92 1    
    45   21   22 1    
    46   21   25 1    
    47   21   23 1    
    48   23   93 1    
    49   23   24 1    
    50   23   94 1    
    51   24   95 1    
    52   25   26 2    
    53   25   27 am   BACKBONE|DICT|INTERRES
    54   27   28 1    
    55   27   96 1    
    56   28   29 1    
    57   28   32 1    
    58   28   30 1    
    59   30   97 1    
    60   30   31 1    
    61   30   98 1    
    62   31   99 1    
    63   32   34 am   BACKBONE|DICT|INTERRES
    64   32   33 2    
    65   34   35 1    
    66   34  100 1    
    67   35   36 1    
    68   35  102 1    
    69   35  101 1    
    70   36   37 2    
    71   36   38 am   BACKBONE|DICT|INTERRES
    72   38   39 1    
    73   38  103 1    
    74   39   41 1    
    75   39   40 1    
    76   39   54 1    
    77   41  104 1    
    78   41  105 1    
    79   41   42 1    
    80   42   43 1    
    81   42  106 1    
    82   42  107 1    
    83   43  109 1    
    84   43  108 1    
    85   43   44 1    
    86   44   46 am   BACKBONE|DICT|INTERRES
    87   44   45 1    
    88   46   48 1    
    89   46   47 2    
    90   48  110 1    
    91   48   49 2    
    92   49   51 1    
    93   49   50 1    
    94   50  112 1    
    95   50  111 1    
    96   50  113 1    
    97   51  114 1    
    98   51   52 1    
    99   51  115 1    
   100   52  117 1    
   101   52   53 1    
   102   52  116 1    
   103   53  118 1    
   104   54   55 2    
   105   54   56 am   BACKBONE|DICT|INTERRES
   106   56   57 1    
   107   56  119 1    
   108   57   58 1    
   109   57   62 1    
   110   57   59 1    
   111   59   60 2    
   112   59   61 am   BACKBONE|DICT|INTERRES
   113   61  120 1    
   114   62  122 1    
   115   62  121 1    
   116   62   63 1    
   117   63   64 1    
   118   63  123 1    
   119   63  124 1    
   120   64  125 1    
   121   64   65 1    
   122   64  126 1    
   123   65   67 am   BACKBONE|DICT|INTERRES
   124   65   66 1    
   125   67   68 2    
   126   67   69 1    
   127   69  127 1    
   128   69   70 2    
   129   70   71 1    
   130   70   72 1    
   131   71  128 1    
   132   71  130 1    
   133   71  129 1    
   134   72   73 1    
   135   72  131 1    
   136   72  132 1    
   137   73  133 1    
   138   73   74 1    
   139   73  134 1    
   140   74  135 1    
@<TRIPOS>SUBSTRUCTURE
     1 UNK         1 GROUP             0       ****    0 ROOT    
@<TRIPOS>MOLECULE
068_c1
88   93    1
SMALL
USER_CHARGES


@<TRIPOS>ATOM
      1 Fe1         0.0000    0.0000    0.0000 Fe        1 UNK         0.0000 
      2 C2          4.6785   -0.3402    0.1566 C.3       1 UNK         0.0000 
      3 C3          4.8403    1.1744   -0.0453 C.3       1 UNK         0.0000 
      4 C4          5.6265    1.4068   -1.3483 C.3       1 UNK         0.0000 
      5 C5          3.5591    2.0309   -0.0421 C.2       1 UNK         0.0000 
      6 C6          3.7542    3.4252   -0.0554 C.2       1 UNK         0.0000 
      7 N7          2.7046    4.2751   -0.0518 N.2       1 UNK         0.0000 
      8 C8          1.4255    3.8370   -0.0346 C.2       1 UNK         0.0000 
      9 C9          1.1817    2.4530   -0.0152 C.2       1 UNK         0.0000 
     10 O10         0.0000    2.0800    0.0000 O.co2     1 UNK         0.0000 
     11 N11         2.2685    1.5372   -0.0154 N.2       1 UNK         0.0000 
     12 O12         2.0733    0.1669    0.0000 O.co2     1 UNK         0.0000 
     13 C13         0.2969    4.8571   -0.0365 C.3       1 UNK         0.0000 
     14 C14         0.3754    5.7410    1.2125 C.3       1 UNK         0.0000 
     15 C15         0.3509    5.7085   -1.3091 C.3       1 UNK         0.0000 
     16 H16         4.1605   -0.5511    1.1166 H         1 UNK         0.0000 
     17 H17         5.6786   -0.8208    0.2138 H         1 UNK         0.0000 
     18 H18         4.1377   -0.8100   -0.6926 H         1 UNK         0.0000 
     19 H19         5.4587    1.5237    0.8114 H         1 UNK         0.0000 
     20 H20         6.5865    0.8487   -1.3260 H         1 UNK         0.0000 
     21 H21         5.0322    1.0626   -2.2223 H         1 UNK         0.0000 
     22 H22         5.8750    2.4776   -1.4944 H         1 UNK         0.0000 
     23 H23         4.7499    3.8473   -0.0603 H         1 UNK         0.0000 
     24 H24        -0.6944    4.3539   -0.0205 H         1 UNK         0.0000 
     25 H25        -0.4643    6.4689    1.2202 H         1 UNK         0.0000 
     26 H26         1.3330    6.3034    1.2422 H         1 UNK         0.0000 
     27 H27         0.2981    5.1134    2.1262 H         1 UNK         0.0000 
     28 H28        -0.4883    6.4369   -1.3189 H         1 UNK         0.0000 
     29 H29         0.2551    5.0577   -2.2046 H         1 UNK         0.0000 
     30 H30         1.3082    6.2689   -1.3724 H         1 UNK         0.0000 
     31 C31         0.2372    0.4332    4.6615 C.3       1 UNK         0.0000 
     32 C32         0.1000   -1.0872    4.8436 C.3       1 UNK         0.0000 
     33 C33        -1.1616   -1.3591    5.6831 C.3       1 UNK         0.0000 
     34 C34         0.0883   -1.9621    3.5726 C.2       1 UNK         0.0000 
     35 C35         0.1400   -3.3517    3.7884 C.2       1 UNK         0.0000 
     36 N36         0.1385   -4.2177    2.7528 N.2       1 UNK         0.0000 
     37 C37         0.0892   -3.8027    1.4670 C.2       1 UNK         0.0000 
     38 C38         0.0419   -2.4248    1.1961 C.2       1 UNK         0.0000 
     39 O39         0.0000   -2.0800    0.0000 O.co2     1 UNK         0.0000 
     40 N40         0.0453   -1.4887    2.2741 N.2       1 UNK         0.0000 
     41 O41         0.0000   -0.1176    2.0767 O.co2     1 UNK         0.0000 
     42 C42         0.0892   -4.8437    0.3593 C.3       1 UNK         0.0000 
     43 C43         1.3769   -5.6721    0.4087 C.3       1 UNK         0.0000 
     44 C44        -1.1440   -5.7442    0.4786 C.3       1 UNK         0.0000 
     45 H45         1.1683    0.6764    4.1063 H         1 UNK         0.0000 
     46 H46         0.3133    0.9258    5.6547 H         1 UNK         0.0000 
     47 H47        -0.6492    0.8658    4.1502 H         1 UNK         0.0000 
     48 H48         0.9926   -1.3948    5.4329 H         1 UNK         0.0000 
     49 H49        -1.1238   -0.7891    6.6358 H         1 UNK         0.0000 
     50 H50        -2.0705   -1.0549    5.1202 H         1 UNK         0.0000 
     51 H51        -1.2572   -2.4314    5.9486 H         1 UNK         0.0000 
     52 H52         0.1911   -3.7563    4.7902 H         1 UNK         0.0000 
     53 H53         0.0477   -4.3618   -0.6418 H         1 UNK         0.0000 
     54 H54         1.3849   -6.4170   -0.4157 H         1 UNK         0.0000 
     55 H55         1.4660   -6.2112    1.3761 H         1 UNK         0.0000 
     56 H56         2.2593   -5.0081    0.2846 H         1 UNK         0.0000 
     57 H57        -1.1551   -6.4895   -0.3453 H         1 UNK         0.0000 
     58 H58        -2.0681   -5.1313    0.4046 H         1 UNK         0.0000 
     59 H59        -1.1483   -6.2856    1.4487 H         1 UNK         0.0000 
     60 C60         0.4906    0.1792   -4.6590 C.3       1 UNK         0.0000 
     61 C61        -1.0227   -0.0203   -4.8463 C.3       1 UNK         0.0000 
     62 C62        -1.2399   -1.3182   -5.6458 C.3       1 UNK         0.0000 
     63 C63        -1.9112   -0.0216   -3.5828 C.2       1 UNK         0.0000 
     64 C64        -3.2978   -0.0249   -3.8158 C.2       1 UNK         0.0000 
     65 N65        -4.1760   -0.0221   -2.7918 N.2       1 UNK         0.0000 
     66 C66        -3.7781   -0.0152   -1.4997 C.2       1 UNK         0.0000 
     67 C67        -2.4034   -0.0058   -1.2071 C.2       1 UNK         0.0000 
     68 O68        -2.0800    0.0000    0.0000 O.co2     1 UNK         0.0000 
     69 N69        -1.4503   -0.0059   -2.2784 N.2       1 UNK         0.0000 
     70 O70        -0.0768    0.0000   -2.0786 O.co2     1 UNK         0.0000 
     71 C71        -4.8370   -0.0161   -0.4088 C.3       1 UNK         0.0000 
     72 C72        -5.7068    1.2400   -0.5145 C.3       1 UNK         0.0000 
     73 C73        -5.6933   -1.2828   -0.5034 C.3       1 UNK         0.0000 
     74 H74         0.6954    1.1361   -4.1330 H         1 UNK         0.0000 
     75 H75         0.9877    0.2415   -5.6510 H         1 UNK         0.0000 
     76 H76         0.9527   -0.6737   -4.1172 H         1 UNK         0.0000 
     77 H77        -1.3566    0.8403   -5.4678 H         1 UNK         0.0000 
     78 H78        -0.6624   -1.2907   -6.5945 H         1 UNK         0.0000 
     79 H79        -0.9076   -2.1962   -5.0507 H         1 UNK         0.0000 
     80 H80        -2.3052   -1.4623   -5.9172 H         1 UNK         0.0000 
     81 H81        -3.6910   -0.0204   -4.8233 H         1 UNK         0.0000 
     82 H82        -4.3714   -0.0096    0.6005 H         1 UNK         0.0000 
     83 H83        -6.4661    1.2493    0.2965 H         1 UNK         0.0000 
     84 H84        -6.2309    1.2795   -1.4933 H         1 UNK         0.0000 
     85 H85        -5.0746    2.1478   -0.4086 H         1 UNK         0.0000 
     86 H86        -6.4526   -1.2929    0.3076 H         1 UNK         0.0000 
     87 H87        -5.0515   -2.1829   -0.3895 H         1 UNK         0.0000 
     88 H88        -6.2169   -1.3365   -1.4818 H         1 UNK         0.0000 
@<TRIPOS>BOND
     1    1   10 nc   
     2    1   12 nc   
     3    1   39 nc   
     4    1   41 nc   
     5    1   68 nc   
     6    1   70 nc   
     7    2   17 1    
     8    2   16 1    
     9    2    3 1    
    10    2   18 1    
    11    3   19 1    
    12    3    4 1    
    13    3    5 1    
    14    4   20 1    
    15    4   21 1    
    16    4   22 1    
    17    5   11 2    
    18    5    6 1    
    19    6    7 2    
    20    6   23 1    
    21    7    8 1    
    22    8    9 2    
    23    8   13 1    
    24    9   10 1    
    25    9   11 1    
    26   11   12 1    
    27   13   24 1    
    28   13   14 1    
    29   13   15 1    
    30   14   25 1    
    31   14   26 1    
    32   14   27 1    
    33   15   28 1    
    34   15   29 1    
    35   15   30 1    
    36   31   32 1    
    37   31   46 1    
    38   31   45 1    
    39   31   47 1    
    40   32   48 1    
    41   32   33 1    
    42   32   34 1    
    43   33   51 1    
    44   33   49 1    
    45   33   50 1    
    46   34   35 1    
    47   34   40 2    
    48   35   52 1    
    49   35   36 2    
    50   36   37 1    
    51   37   38 2    
    52   37   42 1    
    53   38   40 1    
    54   38   39 1    
    55   40   41 1    
    56   42   43 1    
    57   42   44 1    
    58   42   53 1    
    59   43   55 1    
    60   43   54 1    
    61   43   56 1    
    62   44   59 1    
    63   44   57 1    
    64   44   58 1    
    65   60   74 1    
    66   60   76 1    
    67   60   61 1    
    68   60   75 1    
    69   61   62 1    
    70   61   63 1    
    71   61   77 1    
    72   62   79 1    
    73   62   78 1    
    74   62   80 1    
    75   63   69 2    
    76   63   64 1    
    77   64   65 2    
    78   64   81 1    
    79   65   66 1    
    80   66   67 2    
    81   66   71 1    
    82   67   68 1    
    83   67   69 1    
    84   69   70 1    
    85   71   82 1    
    86   71   72 1    
    87   71   73 1    
    88   72   85 1    
    89   72   83 1    
    90   72   84 1    
    91   73   87 1    
    92   73   86 1    
    93   73   88 1    
@<TRIPOS>SUBSTRUCTURE
     1 UNK         1 GROUP             0       ****    0 ROOT    
@<TRIPOS>MOLECULE
069_c1
97   102    1
SMALL
USER_CHARGES


@<TRIPOS>ATOM
      1 Fe1         0.0000    0.0000    0.0000 Fe        1 UNK         0.0000 
      2 C2          5.6759    0.8710   -1.2753 C.3       1 UNK         0.0000 
      3 C3          4.8276    0.7168   -0.0100 C.3       1 UNK         0.0000 
      4 C4          5.6822    0.8893    1.2488 C.3       1 UNK         0.0000 
      5 C5          3.7019    1.7307   -0.0143 C.2       1 UNK         0.0000 
      6 N6          4.0138    3.0514   -0.0254 N.2       1 UNK         0.0000 
      7 C7          3.0707    4.0198   -0.0315 C.2       1 UNK         0.0000 
      8 C8          1.7095    3.6819   -0.0245 C.2       1 UNK         0.0000 
      9 N9          1.3505    2.3561   -0.0104 N.2       1 UNK         0.0000 
     10 O10         0.0000    2.0800    0.0000 O.co2     1 UNK         0.0000 
     11 C11         2.3494    1.3458   -0.0073 C.2       1 UNK         0.0000 
     12 O12         2.0763    0.1243    0.0000 O.co2     1 UNK         0.0000 
     13 C13         0.6533    4.7927   -0.0362 C.3       1 UNK         0.0000 
     14 H14        -0.3662    4.3548   -0.0345 H         1 UNK         0.0000 
     15 C15         0.7707    5.6161   -1.3300 C.3       1 UNK         0.0000 
     16 C16         0.7702    5.6581    1.2414 C.3       1 UNK         0.0000 
     17 C17        -0.3353    6.7088    1.3725 C.3       1 UNK         0.0000 
     18 H18         6.4885    0.1143   -1.2847 H         1 UNK         0.0000 
     19 H19         5.0434    0.7151   -2.1759 H         1 UNK         0.0000 
     20 H20         6.1305    1.8837   -1.3287 H         1 UNK         0.0000 
     21 H21         4.4267   -0.3196   -0.0012 H         1 UNK         0.0000 
     22 H22         6.1371    1.9026    1.2853 H         1 UNK         0.0000 
     23 H23         5.0542    0.7464    2.1547 H         1 UNK         0.0000 
     24 H24         6.4949    0.1328    1.2651 H         1 UNK         0.0000 
     25 H25         3.3857    5.0542   -0.0425 H         1 UNK         0.0000 
     26 H26        -0.0403    6.3689   -1.4015 H         1 UNK         0.0000 
     27 H27         1.7465    6.1416   -1.3879 H         1 UNK         0.0000 
     28 H28         0.6721    4.9456   -2.2105 H         1 UNK         0.0000 
     29 H29         0.6934    4.9863    2.1247 H         1 UNK         0.0000 
     30 H30         1.7550    6.1704    1.2793 H         1 UNK         0.0000 
     31 H31        -0.2814    7.4575    0.5566 H         1 UNK         0.0000 
     32 H32        -1.3343    6.2229    1.3630 H         1 UNK         0.0000 
     33 H33        -0.2162    7.2503    2.3347 H         1 UNK         0.0000 
     34 C34        -1.1488   -0.8268    5.7174 C.3       1 UNK         0.0000 
     35 C35         0.0857   -0.6443    4.8291 C.3       1 UNK         0.0000 
     36 C36         1.3728   -0.7696    5.6504 C.3       1 UNK         0.0000 
     37 C37         0.0791   -1.6708    3.7128 C.2       1 UNK         0.0000 
     38 N38         0.1171   -2.9865    4.0394 N.2       1 UNK         0.0000 
     39 C39         0.1137   -3.9651    3.1080 C.2       1 UNK         0.0000 
     40 C40         0.0712   -3.6458    1.7433 C.2       1 UNK         0.0000 
     41 N41         0.0344   -2.3263    1.3622 N.2       1 UNK         0.0000 
     42 O42         0.0000   -2.0800    0.0000 O.co2     1 UNK         0.0000 
     43 C43         0.0354   -1.3020    2.3557 C.2       1 UNK         0.0000 
     44 O44         0.0000   -0.0812    2.0784 O.co2     1 UNK         0.0000 
     45 C45         0.0640   -4.7727    0.7059 C.3       1 UNK         0.0000 
     46 H46         0.0219   -4.3537   -0.3202 H         1 UNK         0.0000 
     47 C47        -1.1995   -5.6324    0.8757 C.3       1 UNK         0.0000 
     48 C48         1.3723   -5.5927    0.7994 C.3       1 UNK         0.0000 
     49 C49         1.5055   -6.6550   -0.2939 C.3       1 UNK         0.0000 
     50 H50        -1.1563   -0.0639    6.5244 H         1 UNK         0.0000 
     51 H51        -2.0723   -0.7027    5.1116 H         1 UNK         0.0000 
     52 H52        -1.1585   -1.8364    6.1818 H         1 UNK         0.0000 
     53 H53         0.0516    0.3887    4.4202 H         1 UNK         0.0000 
     54 H54         1.4530   -1.7770    6.1125 H         1 UNK         0.0000 
     55 H55         2.2564   -0.6042    4.9968 H         1 UNK         0.0000 
     56 H56         1.3884   -0.0061    6.4569 H         1 UNK         0.0000 
     57 H57         0.1437   -4.9944    3.4378 H         1 UNK         0.0000 
     58 H58        -1.2711   -6.4009    0.0800 H         1 UNK         0.0000 
     59 H59        -1.2132   -6.1415    1.8617 H         1 UNK         0.0000 
     60 H60        -2.1024   -4.9899    0.7922 H         1 UNK         0.0000 
     61 H61         2.2300   -4.8931    0.6864 H         1 UNK         0.0000 
     62 H62         1.4557   -6.0871    1.7905 H         1 UNK         0.0000 
     63 H63         0.7157   -7.4278   -0.2048 H         1 UNK         0.0000 
     64 H64         1.4511   -6.1843   -1.2986 H         1 UNK         0.0000 
     65 H65         2.4879   -7.1629   -0.1950 H         1 UNK         0.0000 
     66 C66        -0.7109   -1.3297   -5.6657 C.3       1 UNK         0.0000 
     67 C67        -0.5893   -0.0523   -4.8290 C.3       1 UNK         0.0000 
     68 C68        -0.7611    1.1927   -5.7048 C.3       1 UNK         0.0000 
     69 C69        -1.6248   -0.0559   -3.7207 C.2       1 UNK         0.0000 
     70 N70        -2.9375   -0.0874   -4.0593 N.2       1 UNK         0.0000 
     71 C71        -3.9240   -0.0945   -3.1369 C.2       1 UNK         0.0000 
     72 C72        -3.6184   -0.0663   -1.7684 C.2       1 UNK         0.0000 
     73 N73        -2.3034   -0.0300   -1.3705 N.2       1 UNK         0.0000 
     74 O74        -2.0800    0.0000    0.0000 O.co2     1 UNK         0.0000 
     75 C75        -1.2672   -0.0259   -2.3600 C.2       1 UNK         0.0000 
     76 O76        -0.0449    0.0000   -2.0795 O.co2     1 UNK         0.0000 
     77 C77        -4.7588   -0.0789   -0.7457 C.3       1 UNK         0.0000 
     78 H78        -4.3543   -0.0610    0.2867 H         1 UNK         0.0000 
     79 C79        -5.5632   -1.3834   -0.8739 C.3       1 UNK         0.0000 
     80 C80        -5.6302    1.1891   -0.9054 C.3       1 UNK         0.0000 
     81 C81        -6.7142    1.3233    0.1657 C.3       1 UNK         0.0000 
     82 H82         0.0590   -1.3381   -6.4663 H         1 UNK         0.0000 
     83 H83        -0.5527   -2.2209   -5.0209 H         1 UNK         0.0000 
     84 H84        -1.7147   -1.4023   -6.1368 H         1 UNK         0.0000 
     85 H85         0.4408   -0.0252   -4.4125 H         1 UNK         0.0000 
     86 H86        -1.7668    1.2106   -6.1771 H         1 UNK         0.0000 
     87 H87        -0.6389    2.1089   -5.0877 H         1 UNK         0.0000 
     88 H88         0.0083    1.2069   -6.5056 H         1 UNK         0.0000 
     89 H89        -4.9496   -0.1228   -3.4779 H         1 UNK         0.0000 
     90 H90        -6.3398   -1.4537   -0.0860 H         1 UNK         0.0000 
     91 H91        -6.0567   -1.4593   -1.8649 H         1 UNK         0.0000 
     92 H92        -4.8853   -2.2544   -0.7442 H         1 UNK         0.0000 
     93 H93        -4.9679    2.0789   -0.8187 H         1 UNK         0.0000 
     94 H94        -6.1118    1.2114   -1.9059 H         1 UNK         0.0000 
     95 H95        -7.4526    0.4992    0.0983 H         1 UNK         0.0000 
     96 H96        -6.2579    1.3298    1.1785 H         1 UNK         0.0000 
     97 H97        -7.2598    2.2790    0.0183 H         1 UNK         0.0000 
@<TRIPOS>BOND
     1    1   10 nc   
     2    1   12 nc   
     3    1   42 nc   
     4    1   44 nc   
     5    1   74 nc   
     6    1   76 nc   
     7    2    3 1    
     8    2   18 1    
     9    2   19 1    
    10    2   20 1    
    11    3   21 1    
    12    3    4 1    
    13    3    5 1    
    14    4   24 1    
    15    4   22 1    
    16    4   23 1    
    17    5   11 2    
    18    5    6 1    
    19    6    7 2    
    20    7    8 1    
    21    7   25 1    
    22    8   13 1    
    23    8    9 2    
    24    9   11 1    
    25    9   10 1    
    26   11   12 1    
    27   13   14 1    
    28   13   16 1    
    29   13   15 1    
    30   15   26 1    
    31   15   27 1    
    32   15   28 1    
    33   16   30 1    
    34   16   17 1    
    35   16   29 1    
    36   17   33 1    
    37   17   31 1    
    38   17   32 1    
    39   34   52 1    
    40   34   50 1    
    41   34   35 1    
    42   34   51 1    
    43   35   36 1    
    44   35   37 1    
    45   35   53 1    
    46   36   54 1    
    47   36   56 1    
    48   36   55 1    
    49   37   38 1    
    50   37   43 2    
    51   38   39 2    
    52   39   57 1    
    53   39   40 1    
    54   40   45 1    
    55   40   41 2    
    56   41   43 1    
    57   41   42 1    
    58   43   44 1    
    59   45   46 1    
    60   45   48 1    
    61   45   47 1    
    62   47   59 1    
    63   47   58 1    
    64   47   60 1    
    65   48   62 1    
    66   48   49 1    
    67   48   61 1    
    68   49   63 1    
    69   49   65 1    
    70   49   64 1    
    71   66   83 1    
    72   66   67 1    
    73   66   82 1    
    74   66   84 1    
    75   67   85 1    
    76   67   69 1    
    77   67   68 1    
    78   68   87 1    
    79   68   86 1    
    80   68   88 1    
    81   69   75 2    
    82   69   70 1    
    83   70   71 2    
    84   71   72 1    
    85   71   89 1    
    86   72   73 2    
    87   72   77 1    
    88   73   74 1    
    89   73   75 1    
    90   75   76 1    
    91   77   78 1    
    92   77   79 1    
    93   77   80 1    
    94   79   92 1    
    95   79   90 1    
    96   79   91 1    
    97   80   93 1    
    98   80   81 1    
    99   80   94 1    
   100   81   96 1    
   101   81   95 1    
   102   81   97 1    
@<TRIPOS>SUBSTRUCTURE
     1 UNK         1 GROUP             0       ****    0 ROOT    
@<TRIPOS>MOLECULE
071_c1
48   54    1
SMALL
USER_CHARGES


@<TRIPOS>ATOM
      1 Fe1         0.0147   -0.2501    1.0972 Fe        1 UNK         0.0000 
      2 C2         -0.0935   -3.9825   -1.1695 C.ar      1 UNK         0.0000 
      3 C3         -0.9634   -4.5138   -0.2290 C.ar      1 UNK         0.0000 
      4 C4         -1.0519   -3.8860    0.9994 C.ar      1 UNK         0.0000 
      5 C5         -0.1635   -2.8452    1.2887 C.ar      1 UNK         0.0000 
      6 O6         -0.5027   -1.8921    2.1671 O.co2     1 UNK         0.0000 
      7 C7          0.9186   -2.4543    0.5052 C.ar      1 UNK         0.0000 
      8 O8          1.6865   -1.3382    1.0227 O.co2     1 UNK         0.0000 
      9 C9          0.7883   -2.9322   -0.8309 C.ar      1 UNK         0.0000 
     10 C10         1.2818   -2.2149   -1.9803 C.2       1 UNK         0.0000 
     11 O11         2.4326   -2.4104   -2.3436 O.2       1 UNK         0.0000 
     12 N12         0.4589   -1.3649   -2.7042 N.am      1 UNK         0.0000 
     13 C13        -0.9370   -0.8084   -2.4312 C.3       1 UNK         0.0000 
     14 C14        -1.0341   -0.1916   -1.0422 C.2       1 UNK         0.0000 
     15 O15         0.0156    0.2986   -0.6432 O.co2     1 UNK         0.0000 
     16 O16        -1.6428   -0.2662    0.0164 O.co2     1 UNK         0.0000 
     17 C17        -1.0223    0.4479   -3.3933 C.3       1 UNK         0.0000 
     18 C18        -1.8519    1.7186   -3.0062 C.3       1 UNK         0.0000 
     19 C19        -1.1041    3.0037   -3.4935 C.3       1 UNK         0.0000 
     20 C20        -1.4753    4.3093   -2.7614 C.3       1 UNK         0.0000 
     21 N21        -1.4963    4.1550   -1.3067 N.am      1 UNK         0.0000 
     22 C22        -0.4757    3.6914   -0.4997 C.2       1 UNK         0.0000 
     23 O23         0.6103    3.3995   -0.9773 O.2       1 UNK         0.0000 
     24 C24        -0.7985    3.3130    0.9158 C.ar      1 UNK         0.0000 
     25 C25        -0.2185    2.1947    1.5805 C.ar      1 UNK         0.0000 
     26 O26         0.7879    1.2490    1.2992 O.co2     1 UNK         0.0000 
     27 C27        -0.8110    1.6735    2.6198 C.ar      1 UNK         0.0000 
     28 O28        -0.2563    0.4483    2.7209 O.co2     1 UNK         0.0000 
     29 C29        -1.8910    2.2213    3.2968 C.ar      1 UNK         0.0000 
     30 C30        -2.4219    3.4049    2.7785 C.ar      1 UNK         0.0000 
     31 C31        -1.9046    3.9314    1.5782 C.ar      1 UNK         0.0000 
     32 H32        -0.1683   -4.3385   -2.1921 H         1 UNK         0.0000 
     33 H33        -1.6722   -5.2828   -0.5094 H         1 UNK         0.0000 
     34 H34        -1.8775   -4.1237    1.6584 H         1 UNK         0.0000 
     35 H35         0.9536   -0.9887   -3.5301 H         1 UNK         0.0000 
     36 H36        -1.1235    0.1733   -4.4638 H         1 UNK         0.0000 
     37 H37         0.0089    0.8454   -3.3049 H         1 UNK         0.0000 
     38 H38        -2.9145    1.6544   -3.3152 H         1 UNK         0.0000 
     39 H39        -1.8690    1.8244   -1.9136 H         1 UNK         0.0000 
     40 H40        -1.1904    3.1070   -4.5962 H         1 UNK         0.0000 
     41 H41        -0.0202    2.9075   -3.2782 H         1 UNK         0.0000 
     42 H42        -0.7684    5.1149   -3.0539 H         1 UNK         0.0000 
     43 H43        -2.4927    4.6070   -3.0990 H         1 UNK         0.0000 
     44 H44        -2.4265    4.3122   -0.8977 H         1 UNK         0.0000 
     45 H45        -2.3438    1.7231    4.1439 H         1 UNK         0.0000 
     46 H46        -3.2855    3.8611    3.2456 H         1 UNK         0.0000 
     47 H47        -2.4138    4.7889    1.1623 H         1 UNK         0.0000 
     48 H48        -1.7242   -1.5376   -2.6225 H         1 UNK         0.0000 
@<TRIPOS>BOND
     1    1    6 nc   
     2    1    8 nc   
     3    1   15 nc   
     4    1   16 nc   
     5    1   26 nc   
     6    1   28 nc   
     7    2    9 ar   
     8    2    3 ar   
     9    2   32 1    
    10    3    4 ar   
    11    3   33 1    
    12    4    5 ar   
    13    4   34 1    
    14    5    6 1    
    15    5    7 ar   
    16    7    8 1    
    17    7    9 ar   
    18    9   10 1    
    19   10   11 2    
    20   10   12 am   BACKBONE|DICT|INTERRES
    21   12   13 1    
    22   12   35 1    
    23   13   14 1    
    24   13   17 1    
    25   13   48 1    
    26   14   15 1    
    27   14   16 2    
    28   17   37 1    
    29   17   18 1    
    30   17   36 1    
    31   18   39 1    
    32   18   19 1    
    33   18   38 1    
    34   19   41 1    
    35   19   20 1    
    36   19   40 1    
    37   20   21 1    
    38   20   42 1    
    39   20   43 1    
    40   21   44 1    
    41   21   22 am   BACKBONE|DICT|INTERRES
    42   22   24 1    
    43   22   23 2    
    44   24   31 ar   
    45   24   25 ar   
    46   25   27 ar   
    47   25   26 1    
    48   27   28 1    
    49   27   29 ar   
    50   29   45 1    
    51   29   30 ar   
    52   30   46 1    
    53   30   31 ar   
    54   31   47 1    
@<TRIPOS>SUBSTRUCTURE
     1 UNK         1 GROUP             0       ****    0 ROOT    
@<TRIPOS>MOLECULE
072_c1
100   108    1
SMALL
USER_CHARGES


@<TRIPOS>ATOM
      1 Fe1        -1.1904   -5.6058   -0.5988 Fe        1 UNK         0.0000 
      2 C2          2.6299   -1.2928    0.0424 C.ar      1 UNK         0.0000 
      3 C3          3.5417   -2.2768    0.3929 C.ar      1 UNK         0.0000 
      4 C4          3.1067   -3.5872    0.5551 C.ar      1 UNK         0.0000 
      5 C5          1.7534   -3.9237    0.4483 C.ar      1 UNK         0.0000 
      6 O6          1.4846   -5.1731    0.5331 O.co2     1 UNK         0.0000 
      7 C7          0.8047   -2.8900    0.2121 C.ar      1 UNK         0.0000 
      8 O8         -0.4572   -3.0706    0.2498 O.co2     1 UNK         0.0000 
      9 C9          1.2591   -1.5877   -0.0898 C.ar      1 UNK         0.0000 
     10 C10         0.3290   -0.5133   -0.6359 C.2       1 UNK         0.0000 
     11 O11         0.7731    0.3108   -1.4198 O.2       1 UNK         0.0000 
     12 N12        -0.9471   -0.4623   -0.1965 N.am      1 UNK         0.0000 
     13 C13        -1.9173    0.5753   -0.5518 C.3       1 UNK         0.0000 
     14 C14        -3.1620    0.7033    0.3550 C.2       1 UNK         0.0000 
     15 O15        -3.6197   -0.2633    0.9432 O.2       1 UNK         0.0000 
     16 N16        -3.8365    1.8740    0.4849 N.am      1 UNK         0.0000 
     17 C17        -3.4325    3.3069    0.2928 C.3       1 UNK         0.0000 
     18 H18        -4.3670    3.8650    0.2566 H         1 UNK         0.0000 
     19 C19        -2.6406    3.8777    1.5179 C.3       1 UNK         0.0000 
     20 H20        -2.2656    4.8790    1.2969 H         1 UNK         0.0000 
     21 C21        -3.4877    3.9568    2.8061 C.3       1 UNK         0.0000 
     22 O22        -1.5757    2.9632    1.7167 O.3       1 UNK         0.0000 
     23 C23        -0.4347    3.2754    2.3353 C.2       1 UNK         0.0000 
     24 O24        -0.1764    4.3846    2.8140 O.2       1 UNK         0.0000 
     25 C25         0.5973    2.1412    2.1988 C.3       1 UNK         0.0000 
     26 H26         1.2649    2.2213    3.0603 H         1 UNK         0.0000 
     27 N27         0.0208    0.7412    2.3540 N.am      1 UNK         0.0000 
     28 C28        -0.7544    0.3516    3.4030 C.2       1 UNK         0.0000 
     29 O29        -1.0500    1.1998    4.2516 O.2       1 UNK         0.0000 
     30 C30        -1.2222   -1.0925    3.7471 C.3       1 UNK         0.0000 
     31 N31        -1.1589   -2.2938    2.8746 N.am      1 UNK         0.0000 
     32 C32        -2.0168   -3.3300    3.0778 C.2       1 UNK         0.0000 
     33 O33        -3.0074   -3.2119    3.8169 O.2       1 UNK         0.0000 
     34 C34        -1.5475   -4.7251    2.6581 C.ar      1 UNK         0.0000 
     35 C35        -2.2600   -5.6359    1.8159 C.ar      1 UNK         0.0000 
     36 O36        -3.3590   -5.2537    1.2708 O.co2     1 UNK         0.0000 
     37 C37        -1.7236   -6.9481    1.6042 C.ar      1 UNK         0.0000 
     38 O38        -2.2336   -7.8782    0.8747 O.co2     1 UNK         0.0000 
     39 C39        -0.5339   -7.3213    2.2292 C.ar      1 UNK         0.0000 
     40 C40         0.1465   -6.4361    3.0562 C.ar      1 UNK         0.0000 
     41 C41        -0.3516   -5.1546    3.2570 C.ar      1 UNK         0.0000 
     42 C42         1.4891    2.4552    0.9280 C.3       1 UNK         0.0000 
     43 H43         2.0135    1.5403    0.6557 H         1 UNK         0.0000 
     44 C44         2.5718    3.5189    1.2868 C.3       1 UNK         0.0000 
     45 O45         0.6966    2.8890   -0.2110 O.3       1 UNK         0.0000 
     46 C46         1.2192    3.1444   -1.4569 C.2       1 UNK         0.0000 
     47 O47         2.4243    3.1346   -1.7121 O.2       1 UNK         0.0000 
     48 C48         0.1705    3.4837   -2.5292 C.3       1 UNK         0.0000 
     49 H49         0.7456    3.8427   -3.3867 H         1 UNK         0.0000 
     50 C50        -0.7625    4.6638   -2.1013 C.3       1 UNK         0.0000 
     51 H51        -0.1073    5.4383   -1.7042 H         1 UNK         0.0000 
     52 C52        -1.4749    5.3293   -3.2990 C.3       1 UNK         0.0000 
     53 O53        -1.6574    4.3730   -1.0035 O.3       1 UNK         0.0000 
     54 C54        -2.7743    3.5828   -1.0710 C.2       1 UNK         0.0000 
     55 O55        -3.2035    3.0903   -2.1131 O.2       1 UNK         0.0000 
     56 N56        -0.5646    2.2708   -2.9503 N.am      1 UNK         0.0000 
     57 C57        -0.4204    1.5631   -4.0841 C.2       1 UNK         0.0000 
     58 O58         0.4276    1.8490   -4.9294 O.2       1 UNK         0.0000 
     59 C59        -1.4256    0.4238   -4.3276 C.3       1 UNK         0.0000 
     60 N60        -0.8353   -0.8896   -4.0639 N.am      1 UNK         0.0000 
     61 C61        -1.5063   -2.0477   -4.2219 C.2       1 UNK         0.0000 
     62 O62        -2.6946   -2.0245   -4.5694 O.2       1 UNK         0.0000 
     63 C63        -0.6720   -3.3307   -4.0697 C.ar      1 UNK         0.0000 
     64 C64        -1.1417   -4.5490   -3.4768 C.ar      1 UNK         0.0000 
     65 O65        -2.3362   -4.6059   -3.0091 O.co2     1 UNK         0.0000 
     66 C66        -0.2599   -5.6759   -3.4047 C.ar      1 UNK         0.0000 
     67 O67        -0.5420   -6.8327   -2.9168 O.co2     1 UNK         0.0000 
     68 C68         1.0401   -5.5570   -3.9015 C.ar      1 UNK         0.0000 
     69 C69         1.4944   -4.3799   -4.4842 C.ar      1 UNK         0.0000 
     70 C70         0.6437   -3.2880   -4.5744 C.ar      1 UNK         0.0000 
     71 H71         2.9855   -0.2909   -0.1559 H         1 UNK         0.0000 
     72 H72         4.5878   -2.0458    0.4985 H         1 UNK         0.0000 
     73 H73         3.8229   -4.3738    0.7572 H         1 UNK         0.0000 
     74 H74        -1.2522   -1.3718    0.1696 H         1 UNK         0.0000 
     75 H75        -2.2702    0.3825   -1.5608 H         1 UNK         0.0000 
     76 H76        -1.3700    1.5065   -0.5228 H         1 UNK         0.0000 
     77 H77        -4.6050    1.7445    1.1274 H         1 UNK         0.0000 
     78 H78        -2.9013    4.3618    3.6301 H         1 UNK         0.0000 
     79 H79        -3.8347    2.9692    3.1155 H         1 UNK         0.0000 
     80 H80        -4.3576    4.5977    2.6752 H         1 UNK         0.0000 
     81 H81         0.3402    0.0033    1.7337 H         1 UNK         0.0000 
     82 H82        -0.5996   -1.3696    4.5995 H         1 UNK         0.0000 
     83 H83        -2.2261   -0.9780    4.1582 H         1 UNK         0.0000 
     84 H84        -0.5222   -2.4096    2.0779 H         1 UNK         0.0000 
     85 H85        -0.1172   -8.3042    2.0704 H         1 UNK         0.0000 
     86 H86         1.0625   -6.7372    3.5402 H         1 UNK         0.0000 
     87 H87         0.1992   -4.4934    3.9144 H         1 UNK         0.0000 
     88 H88         2.1338    4.5059    1.4328 H         1 UNK         0.0000 
     89 H89         3.1011    3.2546    2.2009 H         1 UNK         0.0000 
     90 H90         3.3350    3.6103    0.5167 H         1 UNK         0.0000 
     91 H91        -0.7495    5.7084   -4.0183 H         1 UNK         0.0000 
     92 H92        -2.0945    6.1662   -2.9807 H         1 UNK         0.0000 
     93 H93        -2.1107    4.6223   -3.8371 H         1 UNK         0.0000 
     94 H94        -1.2683    1.9287   -2.3155 H         1 UNK         0.0000 
     95 H95        -2.3358    0.5616   -3.7420 H         1 UNK         0.0000 
     96 H96        -1.7344    0.4656   -5.3753 H         1 UNK         0.0000 
     97 H97         0.0970   -0.9313   -3.6855 H         1 UNK         0.0000 
     98 H98         1.7178   -6.3972   -3.8288 H         1 UNK         0.0000 
     99 H99         2.4940   -4.3241   -4.8862 H         1 UNK         0.0000 
    100 H100        1.0149   -2.4013   -5.0725 H         1 UNK         0.0000 
@<TRIPOS>BOND
     1    1    6 nc   
     2    1    8 nc   
     3    1   36 nc   
     4    1   38 nc   
     5    1   65 nc   
     6    1   67 nc   
     7    2   71 1    
     8    2    3 ar   
     9    2    9 ar   
    10    3   72 1    
    11    3    4 ar   
    12    4   73 1    
    13    4    5 ar   
    14    5    6 1    
    15    5    7 ar   
    16    7    9 ar   
    17    7    8 1    
    18    9   10 1    
    19   10   12 am   BACKBONE|DICT|INTERRES
    20   10   11 2    
    21   12   74 1    
    22   12   13 1    
    23   13   76 1    
    24   13   14 1    
    25   13   75 1    
    26   14   15 2    
    27   14   16 am   BACKBONE|DICT|INTERRES
    28   16   77 1    
    29   16   17 1    
    30   17   18 1    
    31   17   19 1    
    32   17   54 1    
    33   19   20 1    
    34   19   22 1    
    35   19   21 1    
    36   21   79 1    
    37   21   78 1    
    38   21   80 1    
    39   22   23 1    
    40   23   24 2    
    41   23   25 1    
    42   25   27 1    
    43   25   26 1    
    44   25   42 1    
    45   27   81 1    
    46   27   28 am   BACKBONE|DICT|INTERRES
    47   28   30 1    
    48   28   29 2    
    49   30   83 1    
    50   30   82 1    
    51   30   31 1    
    52   31   84 1    
    53   31   32 am   BACKBONE|DICT|INTERRES
    54   32   33 2    
    55   32   34 1    
    56   34   41 ar   
    57   34   35 ar   
    58   35   36 1    
    59   35   37 ar   
    60   37   39 ar   
    61   37   38 1    
    62   39   40 ar   
    63   39   85 1    
    64   40   41 ar   
    65   40   86 1    
    66   41   87 1    
    67   42   43 1    
    68   42   44 1    
    69   42   45 1    
    70   44   88 1    
    71   44   89 1    
    72   44   90 1    
    73   45   46 1    
    74   46   47 2    
    75   46   48 1    
    76   48   49 1    
    77   48   50 1    
    78   48   56 1    
    79   50   51 1    
    80   50   53 1    
    81   50   52 1    
    82   52   92 1    
    83   52   91 1    
    84   52   93 1    
    85   53   54 1    
    86   54   55 2    
    87   56   94 1    
    88   56   57 am   BACKBONE|DICT|INTERRES
    89   57   58 2    
    90   57   59 1    
    91   59   95 1    
    92   59   60 1    
    93   59   96 1    
    94   60   61 am   BACKBONE|DICT|INTERRES
    95   60   97 1    
    96   61   62 2    
    97   61   63 1    
    98   63   64 ar   
    99   63   70 ar   
   100   64   66 ar   
   101   64   65 1    
   102   66   67 1    
   103   66   68 ar   
   104   68   98 1    
   105   68   69 ar   
   106   69   70 ar   
   107   69   99 1    
   108   70  100 1    
@<TRIPOS>SUBSTRUCTURE
     1 UNK         1 GROUP             0       ****    0 ROOT    
@<TRIPOS>MOLECULE
072_B_c1
103   110    1
SMALL
USER_CHARGES


@<TRIPOS>ATOM
      1 Fe1        -0.8518   -5.4616   -0.6098 Fe        1 UNK         0.0000 
      2 C2         -1.6398   -4.2136    4.7140 C.ar      1 UNK         0.0000 
      3 C3         -1.5490   -5.5917    4.8315 C.ar      1 UNK         0.0000 
      4 C4         -1.5537   -6.3856    3.6907 C.ar      1 UNK         0.0000 
      5 C5         -1.7055   -5.8294    2.4198 C.ar      1 UNK         0.0000 
      6 O6         -1.7075   -6.6655    1.4413 O.co2     1 UNK         0.0000 
      7 C7         -1.8424   -4.4146    2.3021 C.ar      1 UNK         0.0000 
      8 O8         -2.0660   -3.8905    1.1646 O.co2     1 UNK         0.0000 
      9 C9         -1.7617   -3.5778    3.4589 C.ar      1 UNK         0.0000 
     10 C10        -1.8410   -2.0306    3.4031 C.2       1 UNK         0.0000 
     11 O11        -1.6591   -1.3229    2.4007 O.2       1 UNK         0.0000 
     12 N12        -2.1560   -1.4157    4.5598 N.am      1 UNK         0.0000 
     13 C13        -2.3823    0.0257    4.7001 C.3       1 UNK         0.0000 
     14 C14        -1.0883    0.8592    4.6048 C.2       1 UNK         0.0000 
     15 O15        -0.0918    0.5859    5.2750 O.2       1 UNK         0.0000 
     16 N16        -1.1438    1.9850    3.8722 N.am      1 UNK         0.0000 
     17 C17        -0.0004    2.8814    3.5873 C.3       1 UNK         0.0000 
     18 H18         0.9313    2.3136    3.6646 H         1 UNK         0.0000 
     19 C19         0.1037    4.0742    4.5920 C.3       1 UNK         0.0000 
     20 H20         0.2448    3.6392    5.5839 H         1 UNK         0.0000 
     21 O21         1.2530    4.8702    4.3495 O.3       1 UNK         0.0000 
     22 C22        -1.1109    5.0197    4.6803 C.3       1 UNK         0.0000 
     23 C23        -0.1923    3.3085    2.1329 C.2       1 UNK         0.0000 
     24 O24        -1.2759    3.6869    1.6714 O.2       1 UNK         0.0000 
     25 O25         0.9424    3.1659    1.4108 O.3       1 UNK         0.0000 
     26 C26         0.9669    3.2910   -0.0138 C.3       1 UNK         0.0000 
     27 H27         0.1316    2.7194   -0.4281 H         1 UNK         0.0000 
     28 C28         0.8295    4.7883   -0.4113 C.3       1 UNK         0.0000 
     29 C29         2.3212    2.6514   -0.4818 C.3       1 UNK         0.0000 
     30 H30         3.0766    3.3595   -0.1372 H         1 UNK         0.0000 
     31 N31         2.7256    1.3965    0.2139 N.am      1 UNK         0.0000 
     32 C32         2.6575    0.0735   -0.0466 C.2       1 UNK         0.0000 
     33 O33         3.1216   -0.6570    0.8242 O.2       1 UNK         0.0000 
     34 C34         2.0194   -0.4768   -1.3445 C.3       1 UNK         0.0000 
     35 N35         2.2082   -1.9162   -1.5166 N.am      1 UNK         0.0000 
     36 C36         3.1943   -2.5540   -2.1542 C.2       1 UNK         0.0000 
     37 O37         4.0982   -1.9315   -2.7376 O.2       1 UNK         0.0000 
     38 C38         3.0783   -4.0849   -2.2184 C.ar      1 UNK         0.0000 
     39 C39         2.1676   -4.8488   -1.4137 C.ar      1 UNK         0.0000 
     40 O40         1.3820   -4.2658   -0.5713 O.co2     1 UNK         0.0000 
     41 C41         2.1036   -6.2613   -1.5971 C.ar      1 UNK         0.0000 
     42 O42         1.3142   -7.0492   -0.9577 O.co2     1 UNK         0.0000 
     43 C43         2.9138   -6.8635   -2.5711 C.ar      1 UNK         0.0000 
     44 C44         3.7972   -6.1233   -3.3486 C.ar      1 UNK         0.0000 
     45 C45         3.8847   -4.7521   -3.1642 C.ar      1 UNK         0.0000 
     46 C46         2.5329    2.6013   -1.9973 C.2       1 UNK         0.0000 
     47 O47         3.6494    2.4784   -2.5019 O.2       1 UNK         0.0000 
     48 O48         1.3893    2.7191   -2.7133 O.3       1 UNK         0.0000 
     49 C49         1.3846    2.8288   -4.1422 C.3       1 UNK         0.0000 
     50 H50         1.9754    2.0096   -4.5574 H         1 UNK         0.0000 
     51 C51         2.0441    4.1714   -4.5728 C.3       1 UNK         0.0000 
     52 C52        -0.0757    2.6983   -4.6834 C.3       1 UNK         0.0000 
     53 H53        -0.0253    2.9835   -5.7350 H         1 UNK         0.0000 
     54 C54        -1.0054    3.7775   -4.0559 C.2       1 UNK         0.0000 
     55 O55        -1.4258    3.4260   -2.8147 O.3       1 UNK         0.0000 
     56 O56        -1.2938    4.8204   -4.6018 O.2       1 UNK         0.0000 
     57 N57        -0.6062    1.3038   -4.7803 N.am      1 UNK         0.0000 
     58 C58        -1.8337    1.0126   -5.2613 C.2       1 UNK         0.0000 
     59 O59        -2.7037    1.8751   -5.3682 O.2       1 UNK         0.0000 
     60 C60        -2.1893   -0.3803   -5.8316 C.3       1 UNK         0.0000 
     61 N61        -1.4171   -1.5786   -5.4880 N.am      1 UNK         0.0000 
     62 C62        -1.3922   -2.1377   -4.2624 C.2       1 UNK         0.0000 
     63 O63        -1.5799   -1.3978   -3.2890 O.2       1 UNK         0.0000 
     64 C64        -1.2301   -3.6744   -4.2450 C.ar      1 UNK         0.0000 
     65 C65        -1.5979   -4.4968   -3.1325 C.ar      1 UNK         0.0000 
     66 O66        -1.9877   -3.9439   -2.0613 O.co2     1 UNK         0.0000 
     67 C67        -1.5148   -5.9082   -3.2036 C.ar      1 UNK         0.0000 
     68 O68        -1.8164   -6.7234   -2.2483 O.co2     1 UNK         0.0000 
     69 C69        -1.0505   -6.5035   -4.3671 C.ar      1 UNK         0.0000 
     70 C70        -0.6909   -5.7334   -5.4695 C.ar      1 UNK         0.0000 
     71 C71        -0.7820   -4.3486   -5.4083 C.ar      1 UNK         0.0000 
     72 H72        -1.6235   -3.6455    5.6267 H         1 UNK         0.0000 
     73 H73        -1.4795   -6.0687    5.7941 H         1 UNK         0.0000 
     74 H74        -1.4562   -7.4596    3.7755 H         1 UNK         0.0000 
     75 H75        -2.1289   -1.9948    5.3693 H         1 UNK         0.0000 
     76 H76        -3.0762    0.3343    3.9166 H         1 UNK         0.0000 
     77 H77        -2.8664    0.2364    5.6505 H         1 UNK         0.0000 
     78 H78        -1.9862    2.1839    3.3475 H         1 UNK         0.0000 
     79 H79         1.4049    5.4407    5.1084 H         1 UNK         0.0000 
     80 H80        -2.0225    4.4734    4.9236 H         1 UNK         0.0000 
     81 H81        -0.9709    5.7736    5.4569 H         1 UNK         0.0000 
     82 H82        -1.2807    5.5467    3.7405 H         1 UNK         0.0000 
     83 H83        -0.1225    5.2055   -0.0846 H         1 UNK         0.0000 
     84 H84         1.6225    5.3917    0.0297 H         1 UNK         0.0000 
     85 H85         0.8665    4.9262   -1.4908 H         1 UNK         0.0000 
     86 H86         2.9560    1.5262    1.1856 H         1 UNK         0.0000 
     87 H87         0.9471   -0.2868   -1.3251 H         1 UNK         0.0000 
     88 H88         2.4465    0.0032   -2.2190 H         1 UNK         0.0000 
     89 H89         1.6579   -2.6007   -0.9793 H         1 UNK         0.0000 
     90 H90         2.8331   -7.9343   -2.7327 H         1 UNK         0.0000 
     91 H91         4.4166   -6.6165   -4.0793 H         1 UNK         0.0000 
     92 H92         4.5800   -4.1859   -3.7656 H         1 UNK         0.0000 
     93 H93         3.0961    4.2122   -4.2917 H         1 UNK         0.0000 
     94 H94         1.5559    5.0283   -4.1066 H         1 UNK         0.0000 
     95 H95         2.0001    4.3119   -5.6527 H         1 UNK         0.0000 
     96 H96         0.0140    0.5320   -4.5722 H         1 UNK         0.0000 
     97 H97        -3.2259   -0.5816   -5.5610 H         1 UNK         0.0000 
     98 H98        -2.1852   -0.2765   -6.9158 H         1 UNK         0.0000 
     99 H99        -1.1598   -2.2094   -6.2188 H         1 UNK         0.0000 
    100 H100       -0.9612   -7.5806   -4.4095 H         1 UNK         0.0000 
    101 H101       -0.3686   -6.2349   -6.3671 H         1 UNK         0.0000 
    102 H102       -0.5254   -3.8106   -6.3056 H         1 UNK         0.0000 
    103 H103       -2.0903    4.0689   -2.5661 H         1 UNK         0.0000 
@<TRIPOS>BOND
     1    1    6 nc   
     2    1    8 nc   
     3    1   40 nc   
     4    1   42 nc   
     5    1   66 nc   
     6    1   68 nc   
     7    2    3 ar   
     8    2   72 1    
     9    2    9 ar   
    10    3   73 1    
    11    3    4 ar   
    12    4    5 ar   
    13    4   74 1    
    14    5    6 1    
    15    5    7 ar   
    16    7    9 ar   
    17    7    8 1    
    18    9   10 1    
    19   10   12 am   BACKBONE|DICT|INTERRES
    20   10   11 2    
    21   12   75 1    
    22   12   13 1    
    23   13   77 1    
    24   13   14 1    
    25   13   76 1    
    26   14   15 2    
    27   14   16 am   BACKBONE|DICT|INTERRES
    28   16   78 1    
    29   16   17 1    
    30   17   18 1    
    31   17   19 1    
    32   17   23 1    
    33   19   22 1    
    34   19   20 1    
    35   19   21 1    
    36   21   79 1    
    37   22   80 1    
    38   22   81 1    
    39   22   82 1    
    40   23   24 2    
    41   23   25 1    
    42   25   26 1    
    43   26   27 1    
    44   26   28 1    
    45   26   29 1    
    46   28   83 1    
    47   28   84 1    
    48   28   85 1    
    49   29   30 1    
    50   29   31 1    
    51   29   46 1    
    52   31   86 1    
    53   31   32 am   BACKBONE|DICT|INTERRES
    54   32   33 2    
    55   32   34 1    
    56   34   35 1    
    57   34   87 1    
    58   34   88 1    
    59   35   89 1    
    60   35   36 am   BACKBONE|DICT|INTERRES
    61   36   37 2    
    62   36   38 1    
    63   38   39 ar   
    64   38   45 ar   
    65   39   40 1    
    66   39   41 ar   
    67   41   42 1    
    68   41   43 ar   
    69   43   44 ar   
    70   43   90 1    
    71   44   45 ar   
    72   44   91 1    
    73   45   92 1    
    74   46   47 2    
    75   46   48 1    
    76   48   49 1    
    77   49   50 1    
    78   49   51 1    
    79   49   52 1    
    80   51   93 1    
    81   51   94 1    
    82   51   95 1    
    83   52   53 1    
    84   52   54 1    
    85   52   57 1    
    86   54   55 1    
    87   54   56 2    
    88   55  103 1    
    89   57   58 am   BACKBONE|DICT|INTERRES
    90   57   96 1    
    91   58   59 2    
    92   58   60 1    
    93   60   61 1    
    94   60   97 1    
    95   60   98 1    
    96   61   62 am   BACKBONE|DICT|INTERRES
    97   61   99 1    
    98   62   63 2    
    99   62   64 1    
   100   64   65 ar   
   101   64   71 ar   
   102   65   67 ar   
   103   65   66 1    
   104   67   68 1    
   105   67   69 ar   
   106   69  100 1    
   107   69   70 ar   
   108   70   71 ar   
   109   70  101 1    
   110   71  102 1    
@<TRIPOS>SUBSTRUCTURE
     1 UNK         1 GROUP             0       ****    0 ROOT    
@<TRIPOS>MOLECULE
073_c1
104   108    1
SMALL
USER_CHARGES


@<TRIPOS>ATOM
      1 Fe1        -0.3682   -1.1920    0.1407 Fe        1 UNK         0.0000 
      2 O2          1.9217   -5.8126    7.1278 O.2       1 UNK         0.0000 
      3 C3          2.6626   -5.1173    6.4294 C.2       1 UNK         0.0000 
      4 O4          3.7249   -4.4197    6.8891 O.3       1 UNK         0.0000 
      5 C5          2.5191   -4.9895    4.9180 C.3       1 UNK         0.0000 
      6 C6          1.7075   -3.7877    4.4236 C.2       1 UNK         0.0000 
      7 C7          0.6704   -3.1611    5.3676 C.3       1 UNK         0.0000 
      8 C8          1.8960   -3.4114    3.1334 C.2       1 UNK         0.0000 
      9 C9          1.1372   -2.4453    2.3810 C.2       1 UNK         0.0000 
     10 O10         0.6409   -2.8729    1.3346 O.co2     1 UNK         0.0000 
     11 N11         0.9479   -1.1866    2.8945 N.am      1 UNK         0.0000 
     12 O12        -0.0244   -0.4104    2.4583 O.co2     1 UNK         0.0000 
     13 C13         1.8787   -0.4405    3.7542 C.3       1 UNK         0.0000 
     14 C14         2.4976    0.8222    3.0844 C.3       1 UNK         0.0000 
     15 C15         1.8382    2.1955    3.3890 C.3       1 UNK         0.0000 
     16 C16         0.4103    2.5649    2.8509 C.3       1 UNK         0.0000 
     17 H17        -0.2994    1.8091    3.1745 H         1 UNK         0.0000 
     18 C18         0.0082    3.8680    3.5895 C.2       1 UNK         0.0000 
     19 O19         0.5932    4.9326    3.5151 O.2       1 UNK         0.0000 
     20 O20        -1.0732    3.6947    4.3870 O.3       1 UNK         0.0000 
     21 N21         0.3288    2.6534    1.3673 N.am      1 UNK         0.0000 
     22 C22        -0.5089    3.4188    0.6352 C.2       1 UNK         0.0000 
     23 O23        -1.4862    4.0461    1.0835 O.2       1 UNK         0.0000 
     24 C24        -0.0999    3.8344   -0.8083 C.3       1 UNK         0.0000 
     25 H25         0.5798    4.6201   -0.4778 H         1 UNK         0.0000 
     26 C26         0.8903    3.0624   -1.7105 C.3       1 UNK         0.0000 
     27 C27         0.2353    2.2608   -2.8636 C.3       1 UNK         0.0000 
     28 C28         0.9926    0.9842   -3.3032 C.3       1 UNK         0.0000 
     29 N29         1.0103   -0.1501   -2.3488 N.am      1 UNK         0.0000 
     30 O30         1.0077    0.2267   -1.0586 O.co2     1 UNK         0.0000 
     31 C31         0.8744   -1.4774   -2.6851 C.2       1 UNK         0.0000 
     32 O32         0.5468   -2.3245   -1.8581 O.co2     1 UNK         0.0000 
     33 C33         1.2394   -1.8941   -4.0519 C.2       1 UNK         0.0000 
     34 C34         1.3562   -3.1716   -4.5232 C.2       1 UNK         0.0000 
     35 C35         1.7657   -3.3980   -5.9858 C.3       1 UNK         0.0000 
     36 C36         1.1055   -4.4178   -3.6513 C.3       1 UNK         0.0000 
     37 C37         1.3903   -5.8061   -4.2420 C.2       1 UNK         0.0000 
     38 O38         0.3137   -6.6204   -4.2145 O.3       1 UNK         0.0000 
     39 O39         2.4792   -6.1907   -4.6683 O.2       1 UNK         0.0000 
     40 N40        -1.0482    4.6610   -1.5606 N.am      1 UNK         0.0000 
     41 C41        -2.3638    4.6145   -1.8062 C.2       1 UNK         0.0000 
     42 O42        -2.8716    5.6254   -2.3050 O.2       1 UNK         0.0000 
     43 C43        -3.3804    3.4498   -1.5391 C.3       1 UNK         0.0000 
     44 H44        -3.8123    3.2597   -2.5251 H         1 UNK         0.0000 
     45 N45        -4.4763    4.1363   -0.7890 N.4       1 UNK         0.0000 
     46 H46        -5.2817    3.5360   -0.8082 H         1 UNK         0.0000 
     47 H47        -4.1163    4.2249    0.1518 H         1 UNK         0.0000 
     48 H48        -4.6157    5.0307   -1.2312 H         1 UNK         0.0000 
     49 C49        -3.1289    2.0803   -0.8913 C.3       1 UNK         0.0000 
     50 C50        -4.2805    1.0569   -1.1985 C.3       1 UNK         0.0000 
     51 C51        -4.4085   -0.2346   -0.3245 C.3       1 UNK         0.0000 
     52 N52        -3.1675   -1.0002   -0.1570 N.am      1 UNK         0.0000 
     53 O53        -2.2188   -0.2123    0.3305 O.co2     1 UNK         0.0000 
     54 C54        -2.8782   -2.3125   -0.4450 C.2       1 UNK         0.0000 
     55 O55        -1.7226   -2.7153   -0.4406 O.co2     1 UNK         0.0000 
     56 C56        -3.9797   -3.2628   -0.6421 C.2       1 UNK         0.0000 
     57 C57        -3.8997   -4.5826   -0.9973 C.2       1 UNK         0.0000 
     58 C58        -2.6249   -5.3754   -1.3224 C.3       1 UNK         0.0000 
     59 C59        -5.1694   -5.4454   -1.0394 C.3       1 UNK         0.0000 
     60 C60        -5.4630   -6.0484   -2.4225 C.2       1 UNK         0.0000 
     61 O61        -5.0383   -7.1316   -2.8211 O.2       1 UNK         0.0000 
     62 O62        -6.2998   -5.2946   -3.1656 O.3       1 UNK         0.0000 
     63 H63         1.9983   -5.8724    4.5535 H         1 UNK         0.0000 
     64 H64         3.5033   -5.0262    4.4462 H         1 UNK         0.0000 
     65 H65         0.0453   -3.9132    5.8405 H         1 UNK         0.0000 
     66 H66        -0.0210   -2.4919    4.8526 H         1 UNK         0.0000 
     67 H67         1.1512   -2.5631    6.1385 H         1 UNK         0.0000 
     68 H68         2.6249   -3.8939    2.5002 H         1 UNK         0.0000 
     69 H69         2.6922   -1.0878    4.0843 H         1 UNK         0.0000 
     70 H70         1.3538   -0.1728    4.6723 H         1 UNK         0.0000 
     71 H71         2.5631    0.6635    2.0057 H         1 UNK         0.0000 
     72 H72         3.5163    0.9006    3.4420 H         1 UNK         0.0000 
     73 H73         2.5237    2.9740    3.0411 H         1 UNK         0.0000 
     74 H74         1.8352    2.3018    4.4784 H         1 UNK         0.0000 
     75 H75         0.6167    1.7696    0.9211 H         1 UNK         0.0000 
     76 H76         1.5770    3.7715   -2.1824 H         1 UNK         0.0000 
     77 H77         1.5622    2.4710   -1.0930 H         1 UNK         0.0000 
     78 H78         0.1132    2.9164   -3.7140 H         1 UNK         0.0000 
     79 H79        -0.7674    1.9547   -2.6180 H         1 UNK         0.0000 
     80 H80         0.5585    0.7029   -4.2666 H         1 UNK         0.0000 
     81 H81         2.0277    1.2449   -3.5174 H         1 UNK         0.0000 
     82 H82         1.0457   -4.0157   -6.5203 H         1 UNK         0.0000 
     83 H83         1.8626   -2.4645   -6.5355 H         1 UNK         0.0000 
     84 H84         2.7353   -3.8888   -6.0190 H         1 UNK         0.0000 
     85 H85         1.7120   -4.3497   -2.7464 H         1 UNK         0.0000 
     86 H86         0.0709   -4.3928   -3.3041 H         1 UNK         0.0000 
     87 H87        -0.6119    5.5227   -1.8299 H         1 UNK         0.0000 
     88 H88        -2.1746    1.6504   -1.1960 H         1 UNK         0.0000 
     89 H89        -3.0468    2.1759    0.1947 H         1 UNK         0.0000 
     90 H90        -5.2349    1.5597   -1.1514 H         1 UNK         0.0000 
     91 H91        -4.1697    0.7096   -2.2227 H         1 UNK         0.0000 
     92 H92        -4.6981    0.0226    0.6968 H         1 UNK         0.0000 
     93 H93        -5.2466   -0.8142   -0.7149 H         1 UNK         0.0000 
     94 H94        -2.6388   -5.7413   -2.3475 H         1 UNK         0.0000 
     95 H95        -1.6789   -4.8429   -1.2359 H         1 UNK         0.0000 
     96 H96        -2.5257   -6.2330   -0.6608 H         1 UNK         0.0000 
     97 H97        -5.0488   -6.2617   -0.3317 H         1 UNK         0.0000 
     98 H98        -6.0465   -4.8928   -0.7117 H         1 UNK         0.0000 
     99 H99         4.0341   -3.8839    6.1542 H         1 UNK         0.0000 
    100 H100       -1.2375    4.5708    4.7101 H         1 UNK         0.0000 
    101 H101        0.6837   -7.4511   -4.5133 H         1 UNK         0.0000 
    102 H102       -6.3204   -5.7714   -3.9969 H         1 UNK         0.0000 
    103 H103        1.4560   -1.0896   -4.7348 H         1 UNK         0.0000 
    104 H104       -4.9474   -2.8446   -0.4283 H         1 UNK         0.0000 
@<TRIPOS>BOND
     1    1   10 nc   
     2    1   12 nc   
     3    1   30 nc   
     4    1   32 nc   
     5    1   53 nc   
     6    1   55 nc   
     7    2    3 2    
     8    3    4 1    
     9    3    5 1    
    10    4   99 1    
    11    5    6 1    
    12    5   63 1    
    13    5   64 1    
    14    6    7 1    
    15    6    8 2    
    16    7   65 1    
    17    7   67 1    
    18    7   66 1    
    19    8    9 1    
    20    8   68 1    
    21    9   11 am   BACKBONE|DICT|INTERRES
    22    9   10 2    
    23   11   13 1    
    24   11   12 1    
    25   13   69 1    
    26   13   70 1    
    27   13   14 1    
    28   14   15 1    
    29   14   72 1    
    30   14   71 1    
    31   15   74 1    
    32   15   16 1    
    33   15   73 1    
    34   16   17 1    
    35   16   18 1    
    36   16   21 1    
    37   18   20 1    
    38   18   19 2    
    39   20  100 1    
    40   21   22 am   BACKBONE|DICT|INTERRES
    41   21   75 1    
    42   22   23 2    
    43   22   24 1    
    44   24   25 1    
    45   24   26 1    
    46   24   40 1    
    47   26   77 1    
    48   26   27 1    
    49   26   76 1    
    50   27   79 1    
    51   27   28 1    
    52   27   78 1    
    53   28   29 1    
    54   28   80 1    
    55   28   81 1    
    56   29   30 1    
    57   29   31 am   BACKBONE|DICT|INTERRES
    58   31   32 2    
    59   31   33 1    
    60   33   34 2    
    61   33  103 1    
    62   34   36 1    
    63   34   35 1    
    64   35   84 1    
    65   35   82 1    
    66   35   83 1    
    67   36   86 1    
    68   36   85 1    
    69   36   37 1    
    70   37   38 1    
    71   37   39 2    
    72   38  101 1    
    73   40   41 am   BACKBONE|DICT|INTERRES
    74   40   87 1    
    75   41   43 1    
    76   41   42 2    
    77   43   44 1    
    78   43   45 1    
    79   43   49 1    
    80   45   47 1    
    81   45   46 1    
    82   45   48 1    
    83   49   89 1    
    84   49   50 1    
    85   49   88 1    
    86   50   90 1    
    87   50   51 1    
    88   50   91 1    
    89   51   92 1    
    90   51   52 1    
    91   51   93 1    
    92   52   53 1    
    93   52   54 am   BACKBONE|DICT|INTERRES
    94   54   55 2    
    95   54   56 1    
    96   56   57 2    
    97   56  104 1    
    98   57   58 1    
    99   57   59 1    
   100   58   95 1    
   101   58   96 1    
   102   58   94 1    
   103   59   98 1    
   104   59   97 1    
   105   59   60 1    
   106   60   61 2    
   107   60   62 1    
   108   62  102 1    
@<TRIPOS>SUBSTRUCTURE
     1 UNK         1 GROUP             0       ****    0 ROOT    
@<TRIPOS>MOLECULE
074_c1
111   116    1
SMALL
USER_CHARGES


@<TRIPOS>ATOM
      1 Fe1         0.0011   -0.1717   -0.1706 Fe        1 UNK         0.0000 
      2 N2          7.4187    7.0987   -4.8944 N.pl3     1 UNK         0.0000 
      3 C3          6.8361    6.2242   -5.7137 C.cat     1 UNK         0.0000 
      4 N4          7.3435    5.9987   -6.9284 N.pl3     1 UNK         0.0000 
      5 H5          6.9218    5.2929   -7.5178 H         1 UNK         0.0000 
      6 H6          8.1591    6.4686   -7.2970 H         1 UNK         0.0000 
      7 N7          5.7366    5.5820   -5.3160 N.pl3     1 UNK         0.0000 
      8 C8          4.9571    4.6449   -6.1332 C.3       1 UNK         0.0000 
      9 C9          3.7063    4.1931   -5.3914 C.3       1 UNK         0.0000 
     10 C10         4.0057    3.4326   -4.0856 C.3       1 UNK         0.0000 
     11 C11         2.8181    2.5142   -3.6818 C.3       1 UNK         0.0000 
     12 H12         2.5247    1.9358   -4.5619 H         1 UNK         0.0000 
     13 C13         1.5360    3.3520   -3.3910 C.2       1 UNK         0.0000 
     14 O14         0.8465    3.6677   -4.3655 O.2       1 UNK         0.0000 
     15 N15         1.2999    3.7778   -2.1353 N.am      1 UNK         0.0000 
     16 C16         0.1281    4.5123   -1.5424 C.3       1 UNK         0.0000 
     17 H17         0.5822    5.0877   -0.7338 H         1 UNK         0.0000 
     18 C18        -0.7858    3.5031   -0.7580 C.3       1 UNK         0.0000 
     19 H19        -1.4894    4.0783   -0.1508 H         1 UNK         0.0000 
     20 O20        -0.0122    2.6468    0.0314 O.co2     1 UNK         0.0000 
     21 C21        -1.6777    2.6979   -1.7151 C.3       1 UNK         0.0000 
     22 C22        -0.5080    5.5806   -2.4883 C.2       1 UNK         0.0000 
     23 O23         0.1646    6.2854   -3.2495 O.2       1 UNK         0.0000 
     24 O24        -1.8593    5.7318   -2.3781 O.3       1 UNK         0.0000 
     25 C25        -2.6210    6.1857   -3.4694 C.3       1 UNK         0.0000 
     26 N26         3.2134    1.4340   -2.7660 N.am      1 UNK         0.0000 
     27 C27         4.0229    0.4053   -3.0803 C.2       1 UNK         0.0000 
     28 O28         4.8901    0.4912   -3.9603 O.2       1 UNK         0.0000 
     29 C29         3.6184   -0.9471   -2.4876 C.ar      1 UNK         0.0000 
     30 C30         2.7788   -1.0718   -1.3411 C.ar      1 UNK         0.0000 
     31 O31         2.6143   -0.0425   -0.5753 O.co2     1 UNK         0.0000 
     32 C32         2.1334   -2.3245   -1.0982 C.ar      1 UNK         0.0000 
     33 O33         1.2290   -2.5547   -0.2252 O.co2     1 UNK         0.0000 
     34 C34         2.4506   -3.4313   -1.8966 C.ar      1 UNK         0.0000 
     35 C35         3.3801   -3.3341   -2.9255 C.ar      1 UNK         0.0000 
     36 C36         3.9479   -2.1037   -3.2235 C.ar      1 UNK         0.0000 
     37 H37         7.0490    7.2656   -3.9659 H         1 UNK         0.0000 
     38 H38         8.2381    7.6270   -5.1629 H         1 UNK         0.0000 
     39 H39         5.3464    5.7126   -4.3898 H         1 UNK         0.0000 
     40 H40         4.6529    5.1738   -7.0399 H         1 UNK         0.0000 
     41 H41         5.5506    3.7848   -6.4465 H         1 UNK         0.0000 
     42 H42         2.9888    5.0059   -5.2410 H         1 UNK         0.0000 
     43 H43         3.2050    3.4936   -6.0590 H         1 UNK         0.0000 
     44 H44         4.9100    2.8537   -4.2502 H         1 UNK         0.0000 
     45 H45         4.2492    4.1045   -3.2597 H         1 UNK         0.0000 
     46 H46         1.7292    3.2533   -1.3894 H         1 UNK         0.0000 
     47 H47        -2.4466    3.2805   -2.2010 H         1 UNK         0.0000 
     48 H48        -1.0773    2.2684   -2.5150 H         1 UNK         0.0000 
     49 H49        -2.2038    1.8789   -1.2180 H         1 UNK         0.0000 
     50 H50        -2.6765    5.4040   -4.2321 H         1 UNK         0.0000 
     51 H51        -3.6371    6.3925   -3.1292 H         1 UNK         0.0000 
     52 H52        -2.2063    7.0895   -3.9203 H         1 UNK         0.0000 
     53 H53         2.6650    1.1837   -1.9372 H         1 UNK         0.0000 
     54 H54         1.9456   -4.3743   -1.7234 H         1 UNK         0.0000 
     55 H55         3.6172   -4.2053   -3.5132 H         1 UNK         0.0000 
     56 H56         4.6216   -2.0102   -4.0654 H         1 UNK         0.0000 
     57 N57        -7.4048   -4.9184    7.1094 N.pl3     1 UNK         0.0000 
     58 C58        -6.8222   -5.7330    6.2306 C.cat     1 UNK         0.0000 
     59 N59        -7.3286   -6.9472    5.9980 N.pl3     1 UNK         0.0000 
     60 H60        -6.9052   -7.5282    5.2866 H         1 UNK         0.0000 
     61 H61        -8.1435   -7.3241    6.4630 H         1 UNK         0.0000 
     62 N62        -5.7230   -5.3307    5.5903 N.pl3     1 UNK         0.0000 
     63 C63        -4.9442   -6.1398    4.6454 C.3       1 UNK         0.0000 
     64 C64        -3.6958   -5.3930    4.1947 C.3       1 UNK         0.0000 
     65 C65        -4.0007   -4.0881    3.4356 C.3       1 UNK         0.0000 
     66 C66        -2.8143   -3.6779    2.5181 C.3       1 UNK         0.0000 
     67 H67        -2.5195   -4.5563    1.9371 H         1 UNK         0.0000 
     68 C68        -1.5332   -3.3861    3.3568 C.2       1 UNK         0.0000 
     69 O69        -0.8431   -4.3600    3.6738 O.2       1 UNK         0.0000 
     70 N70        -1.2978   -2.1301    3.7819 N.am      1 UNK         0.0000 
     71 C71        -0.1258   -1.5352    4.5156 C.3       1 UNK         0.0000 
     72 H72        -0.5795   -0.7257    5.0885 H         1 UNK         0.0000 
     73 C73         0.7892   -0.7555    3.5044 C.3       1 UNK         0.0000 
     74 H74         1.4941   -0.1493    4.0782 H         1 UNK         0.0000 
     75 O75         0.0164    0.0335    2.6472 O.co2     1 UNK         0.0000 
     76 C76         1.6775   -1.7173    2.6999 C.3       1 UNK         0.0000 
     77 C77         0.5111   -2.4797    5.5851 C.2       1 UNK         0.0000 
     78 O78        -0.1619   -3.2397    6.2907 O.2       1 UNK         0.0000 
     79 O79         1.8622   -2.3709    5.7368 O.3       1 UNK         0.0000 
     80 C80         2.6204   -3.4628    6.1937 C.3       1 UNK         0.0000 
     81 N81        -3.2133   -2.7610    1.4401 N.am      1 UNK         0.0000 
     82 C82        -4.0210   -3.0781    0.4109 C.2       1 UNK         0.0000 
     83 O83        -4.8879   -3.9586    0.4971 O.2       1 UNK         0.0000 
     84 C84        -3.6143   -2.4888   -0.9424 C.ar      1 UNK         0.0000 
     85 C85        -2.7756   -1.3419   -1.0680 C.ar      1 UNK         0.0000 
     86 O86        -2.6123   -0.5742   -0.0404 O.co2     1 UNK         0.0000 
     87 C87        -2.1296   -1.1007   -2.3210 C.ar      1 UNK         0.0000 
     88 O88        -1.2270   -0.2264   -2.5529 O.co2     1 UNK         0.0000 
     89 C89        -2.4450   -1.9014   -3.4263 C.ar      1 UNK         0.0000 
     90 C90        -3.3729   -2.9314   -3.3283 C.ar      1 UNK         0.0000 
     91 C91        -3.9418   -3.2277   -2.0975 C.ar      1 UNK         0.0000 
     92 H92        -7.0359   -3.9903    7.2811 H         1 UNK         0.0000 
     93 H93        -8.2244   -5.1908    7.6354 H         1 UNK         0.0000 
     94 H94        -5.3322   -4.4058    5.7271 H         1 UNK         0.0000 
     95 H95        -4.6395   -7.0541    5.1608 H         1 UNK         0.0000 
     96 H96        -5.5421   -6.4392    3.7836 H         1 UNK         0.0000 
     97 H97        -2.9829   -5.2344    5.0101 H         1 UNK         0.0000 
     98 H98        -3.1860   -6.0587    3.4994 H         1 UNK         0.0000 
     99 H99        -4.9040   -4.2565    2.8563 H         1 UNK         0.0000 
    100 H100       -4.2481   -3.2641    4.1081 H         1 UNK         0.0000 
    101 H101       -1.7280   -1.3852    3.2572 H         1 UNK         0.0000 
    102 H102        2.4443   -2.2071    3.2829 H         1 UNK         0.0000 
    103 H103        1.0747   -2.5150    2.2703 H         1 UNK         0.0000 
    104 H104        2.2057   -1.2217    1.8819 H         1 UNK         0.0000 
    105 H105        2.6724   -4.2290    5.4152 H         1 UNK         0.0000 
    106 H106        3.6377   -3.1243    6.3983 H         1 UNK         0.0000 
    107 H107        2.2060   -3.9104    7.0998 H         1 UNK         0.0000 
    108 H108       -2.6652   -1.9325    1.1882 H         1 UNK         0.0000 
    109 H109       -1.9392   -1.7275   -4.3691 H         1 UNK         0.0000 
    110 H110       -3.6094   -3.5210   -4.1983 H         1 UNK         0.0000 
    111 H111       -4.6153   -4.0698   -2.0035 H         1 UNK         0.0000 
@<TRIPOS>BOND
     1    1   20 nc   
     2    1   31 nc   
     3    1   33 nc   
     4    1   75 nc   
     5    1   86 nc   
     6    1   88 nc   
     7    2   37 1    
     8    2    3 ar   
     9    2   38 1    
    10    3    7 ar   
    11    3    4 ar   
    12    4    5 1    
    13    4    6 1    
    14    7   39 1    
    15    7    8 1    
    16    8    9 1    
    17    8   40 1    
    18    8   41 1    
    19    9   42 1    
    20    9   10 1    
    21    9   43 1    
    22   10   11 1    
    23   10   45 1    
    24   10   44 1    
    25   11   12 1    
    26   11   13 1    
    27   11   26 1    
    28   13   15 am   BACKBONE|DICT|INTERRES
    29   13   14 2    
    30   15   16 1    
    31   15   46 1    
    32   16   18 1    
    33   16   17 1    
    34   16   22 1    
    35   18   19 1    
    36   18   20 1    
    37   18   21 1    
    38   21   49 1    
    39   21   47 1    
    40   21   48 1    
    41   22   23 2    
    42   22   24 1    
    43   24   25 1    
    44   25   51 1    
    45   25   50 1    
    46   25   52 1    
    47   26   53 1    
    48   26   27 am   BACKBONE|DICT|INTERRES
    49   27   29 1    
    50   27   28 2    
    51   29   30 ar   
    52   29   36 ar   
    53   30   32 ar   
    54   30   31 1    
    55   32   33 1    
    56   32   34 ar   
    57   34   54 1    
    58   34   35 ar   
    59   35   36 ar   
    60   35   55 1    
    61   36   56 1    
    62   57   92 1    
    63   57   93 1    
    64   57   58 ar   
    65   58   59 ar   
    66   58   62 ar   
    67   59   61 1    
    68   59   60 1    
    69   62   94 1    
    70   62   63 1    
    71   63   95 1    
    72   63   64 1    
    73   63   96 1    
    74   64   97 1    
    75   64   65 1    
    76   64   98 1    
    77   65  100 1    
    78   65   66 1    
    79   65   99 1    
    80   66   67 1    
    81   66   68 1    
    82   66   81 1    
    83   68   69 2    
    84   68   70 am   BACKBONE|DICT|INTERRES
    85   70   71 1    
    86   70  101 1    
    87   71   72 1    
    88   71   77 1    
    89   71   73 1    
    90   73   74 1    
    91   73   75 1    
    92   73   76 1    
    93   76  102 1    
    94   76  103 1    
    95   76  104 1    
    96   77   78 2    
    97   77   79 1    
    98   79   80 1    
    99   80  106 1    
   100   80  107 1    
   101   80  105 1    
   102   81   82 am   BACKBONE|DICT|INTERRES
   103   81  108 1    
   104   82   83 2    
   105   82   84 1    
   106   84   85 ar   
   107   84   91 ar   
   108   85   86 1    
   109   85   87 ar   
   110   87   88 1    
   111   87   89 ar   
   112   89   90 ar   
   113   89  109 1    
   114   90   91 ar   
   115   90  110 1    
   116   91  111 1    
@<TRIPOS>SUBSTRUCTURE
     1 UNK         1 GROUP             0       ****    0 ROOT    
@<TRIPOS>MOLECULE
075_c1
60   65    1
SMALL
USER_CHARGES


@<TRIPOS>ATOM
      1 Fe1        -0.0185    0.1680   -0.0615 Fe        1 UNK         0.0000 
      2 O2         -2.0297    1.1352    1.2238 O.co2     1 UNK         0.0000 
      3 N3         -1.3696    1.3533    2.3629 N.am      1 UNK         0.0000 
      4 C4         -1.9095    2.5308    3.0765 C.3       1 UNK         0.0000 
      5 C5         -1.4804    3.9296    2.5134 C.3       1 UNK         0.0000 
      6 C6         -2.1979    4.5519    1.2729 C.3       1 UNK         0.0000 
      7 C7         -1.8772    4.0617   -0.1739 C.3       1 UNK         0.0000 
      8 C8         -0.3965    4.1569   -0.6475 C.3       1 UNK         0.0000 
      9 N9         -0.1254    3.6000   -2.0072 N.3       1 UNK         0.0000 
     10 C10        -0.0248    2.1620   -2.1368 C.3       1 UNK         0.0000 
     11 O11         1.0913    1.8269   -1.3832 O.co2     1 UNK         0.0000 
     12 C12         0.0417    1.4933   -3.5401 C.3       1 UNK         0.0000 
     13 C13        -0.4641   -0.0150   -3.7171 C.3       1 UNK         0.0000 
     14 C14        -0.2241   -1.0661   -2.5832 C.2       1 UNK         0.0000 
     15 O15         0.7978   -1.0283   -1.8776 O.co2     1 UNK         0.0000 
     16 N16        -1.3207   -1.6711   -2.0692 N.am      1 UNK         0.0000 
     17 O17        -1.8123   -1.3518   -0.8703 O.co2     1 UNK         0.0000 
     18 C18        -1.7880   -2.9918   -2.5588 C.3       1 UNK         0.0000 
     19 C19        -0.7806   -4.1824   -2.4592 C.3       1 UNK         0.0000 
     20 C20        -0.4152   -4.7812   -1.0611 C.3       1 UNK         0.0000 
     21 C21         0.1934   -3.7858   -0.0576 C.3       1 UNK         0.0000 
     22 C22         0.8202   -4.3048    1.2666 C.3       1 UNK         0.0000 
     23 N23         0.8995   -3.3394    2.3879 N.am      1 UNK         0.0000 
     24 C24         0.9341   -1.9931    2.3371 C.2       1 UNK         0.0000 
     25 O25         0.9597   -1.3924    1.2546 O.co2     1 UNK         0.0000 
     26 C26         0.8412   -1.1959    3.6714 C.3       1 UNK         0.0000 
     27 C27         0.5039    0.3621    3.7305 C.3       1 UNK         0.0000 
     28 C28        -0.0482    1.0837    2.4849 C.2       1 UNK         0.0000 
     29 O29         0.6718    1.1478    1.4815 O.co2     1 UNK         0.0000 
     30 H30        -3.0027    2.4808    3.0851 H         1 UNK         0.0000 
     31 H31        -1.6443    2.4833    4.1390 H         1 UNK         0.0000 
     32 H32        -0.4012    3.9730    2.3866 H         1 UNK         0.0000 
     33 H33        -1.6908    4.6311    3.3190 H         1 UNK         0.0000 
     34 H34        -3.2794    4.4828    1.4200 H         1 UNK         0.0000 
     35 H35        -1.9868    5.6239    1.2872 H         1 UNK         0.0000 
     36 H36        -2.2709    3.0592   -0.3034 H         1 UNK         0.0000 
     37 H37        -2.4687    4.6677   -0.8628 H         1 UNK         0.0000 
     38 H38        -0.1324    5.2145   -0.6554 H         1 UNK         0.0000 
     39 H39         0.2702    3.7432    0.1136 H         1 UNK         0.0000 
     40 H40        -0.7413    4.0004   -2.7031 H         1 UNK         0.0000 
     41 H41        -0.5034    2.1096   -4.2571 H         1 UNK         0.0000 
     42 H42         1.0794    1.5434   -3.8786 H         1 UNK         0.0000 
     43 H43        -0.0397   -0.4296   -4.6330 H         1 UNK         0.0000 
     44 H44        -1.5500    0.0243   -3.8932 H         1 UNK         0.0000 
     45 H45        -2.7011   -3.2905   -2.0280 H         1 UNK         0.0000 
     46 H46        -2.1153   -2.8752   -3.5965 H         1 UNK         0.0000 
     47 H47         0.1303   -3.9259   -2.9970 H         1 UNK         0.0000 
     48 H48        -1.2240   -4.9986   -3.0296 H         1 UNK         0.0000 
     49 H49         0.2844   -5.6033   -1.2229 H         1 UNK         0.0000 
     50 H50        -1.3049   -5.2330   -0.6187 H         1 UNK         0.0000 
     51 H51         0.9440   -3.1980   -0.5776 H         1 UNK         0.0000 
     52 H52        -0.6134   -3.1263    0.2319 H         1 UNK         0.0000 
     53 H53         0.2023   -5.1362    1.6155 H         1 UNK         0.0000 
     54 H54         1.7944   -4.7612    1.0668 H         1 UNK         0.0000 
     55 H55         0.9440   -3.7621    3.3051 H         1 UNK         0.0000 
     56 H56         0.0298   -1.6887    4.2113 H         1 UNK         0.0000 
     57 H57         1.7192   -1.4005    4.2771 H         1 UNK         0.0000 
     58 H58         1.4507    0.8835    3.8943 H         1 UNK         0.0000 
     59 H59        -0.0659    0.5965    4.6413 H         1 UNK         0.0000 
     60 H60        -0.9624    1.8034   -1.7163 H         1 UNK         0.0000 
@<TRIPOS>BOND
     1    1    2 nc   
     2    1   11 nc   
     3    1   15 nc   
     4    1   17 nc   
     5    1   25 nc   
     6    1   29 nc   
     7    2    3 1    
     8    3   28 am   BACKBONE|DICT|INTERRES
     9    3    4 1    
    10    4   31 1    
    11    4    5 1    
    12    4   30 1    
    13    5   32 1    
    14    5   33 1    
    15    5    6 1    
    16    6   34 1    
    17    6    7 1    
    18    6   35 1    
    19    7    8 1    
    20    7   36 1    
    21    7   37 1    
    22    8   39 1    
    23    8    9 1    
    24    8   38 1    
    25    9   10 1    
    26    9   40 1    
    27   10   11 1    
    28   10   12 1    
    29   10   60 1    
    30   12   13 1    
    31   12   41 1    
    32   12   42 1    
    33   13   14 1    
    34   13   43 1    
    35   13   44 1    
    36   14   16 am   BACKBONE|DICT|INTERRES
    37   14   15 2    
    38   16   17 1    
    39   16   18 1    
    40   18   45 1    
    41   18   19 1    
    42   18   46 1    
    43   19   20 1    
    44   19   47 1    
    45   19   48 1    
    46   20   50 1    
    47   20   21 1    
    48   20   49 1    
    49   21   52 1    
    50   21   22 1    
    51   21   51 1    
    52   22   53 1    
    53   22   23 1    
    54   22   54 1    
    55   23   55 1    
    56   23   24 am   BACKBONE|DICT|INTERRES
    57   24   25 2    
    58   24   26 1    
    59   26   27 1    
    60   26   56 1    
    61   26   57 1    
    62   27   59 1    
    63   27   28 1    
    64   27   58 1    
    65   28   29 2    
@<TRIPOS>SUBSTRUCTURE
     1 UNK         1 GROUP             0       ****    0 ROOT    
@<TRIPOS>MOLECULE
076_c1
58   63    1
SMALL
USER_CHARGES


@<TRIPOS>ATOM
      1 Fe1         0.0000    0.0000    0.0000 Fe        1 UNK         0.0000 
      2 O2          0.0000    2.0800    0.0000 O.co2     1 UNK         0.0000 
      3 N3          1.3292    2.4217   -0.0246 N.am      1 UNK         0.0000 
      4 C4          1.6463    3.7545   -0.0517 C.2       1 UNK         0.0000 
      5 C5          0.5283    4.7725   -0.0527 C.3       1 UNK         0.0000 
      6 C6          2.9973    4.1682   -0.0783 C.2       1 UNK         0.0000 
      7 O7          3.2663    5.5040   -0.1046 O.3       1 UNK         0.0000 
      8 C8          4.4821    6.1622   -0.1296 C.3       1 UNK         0.0000 
      9 C9          4.0027    3.1824   -0.0767 C.2       1 UNK         0.0000 
     10 C10         3.6700    1.8328   -0.0493 C.2       1 UNK         0.0000 
     11 C11         2.3339    1.4464   -0.0232 C.2       1 UNK         0.0000 
     12 O12         2.0664    0.2371    0.0000 O.co2     1 UNK         0.0000 
     13 H13        -0.1144    4.6156   -0.9445 H         1 UNK         0.0000 
     14 H14        -0.0881    4.6460    0.8622 H         1 UNK         0.0000 
     15 H15         0.8889    5.8209   -0.0756 H         1 UNK         0.0000 
     16 H16         4.5306    6.7911   -1.0420 H         1 UNK         0.0000 
     17 H17         5.3603    5.4950   -0.1260 H         1 UNK         0.0000 
     18 H18         4.5494    6.8240    0.7581 H         1 UNK         0.0000 
     19 O19         0.0000   -2.0800    0.0000 O.co2     1 UNK         0.0000 
     20 N20        -0.0332   -2.3770    1.3456 N.2       1 UNK         0.0000 
     21 C21        -0.0710   -3.7037    1.6899 C.2       1 UNK         0.0000 
     22 C22        -0.0728   -4.7440    0.5920 C.3       1 UNK         0.0000 
     23 C23        -0.1083   -4.0938    3.0475 C.2       1 UNK         0.0000 
     24 O24        -0.1452   -5.4248    3.3384 O.3       1 UNK         0.0000 
     25 C25        -0.1819   -6.0628    4.5646 C.3       1 UNK         0.0000 
     26 C26        -0.1063   -3.0932    4.0362 C.2       1 UNK         0.0000 
     27 C27        -0.0682   -1.7505    3.6835 C.2       1 UNK         0.0000 
     28 C28        -0.0314   -1.3806    2.3430 C.1       1 UNK         0.0000 
     29 O29         0.0000   -0.1675    2.0732 O.co2     1 UNK         0.0000 
     30 H30        -0.9601   -4.5937   -0.0587 H         1 UNK         0.0000 
     31 H31         0.8463   -4.6358   -0.0216 H         1 UNK         0.0000 
     32 H32        -0.1049   -5.7852    0.9718 H         1 UNK         0.0000 
     33 H33        -1.0988   -6.6847    4.6173 H         1 UNK         0.0000 
     34 H34        -0.1795   -5.3815    5.4317 H         1 UNK         0.0000 
     35 H35         0.7011   -6.7288    4.6479 H         1 UNK         0.0000 
     36 H36        -0.1343   -3.3173    5.0894 H         1 UNK         0.0000 
     37 H37        -0.0681   -0.9936    4.4592 H         1 UNK         0.0000 
     38 O38        -2.0800    0.0000    0.0000 O.co2     1 UNK         0.0000 
     39 N39        -2.3459    0.0295   -1.3567 N.am      1 UNK         0.0000 
     40 C40        -3.6675    0.0629   -1.7207 C.2       1 UNK         0.0000 
     41 C41        -4.7241    0.0641   -0.6379 C.3       1 UNK         0.0000 
     42 C42        -4.0408    0.0965   -3.0832 C.2       1 UNK         0.0000 
     43 O43        -5.3679    0.1295   -3.3902 O.3       1 UNK         0.0000 
     44 C44        -5.9917    0.1683   -4.6240 C.3       1 UNK         0.0000 
     45 C45        -3.0297    0.0951   -4.0601 C.2       1 UNK         0.0000 
     46 C46        -1.6918    0.0609   -3.6924 C.2       1 UNK         0.0000 
     47 C47        -1.3341    0.0280   -2.3483 C.2       1 UNK         0.0000 
     48 O48        -0.1180    0.0000   -2.0767 O.co2     1 UNK         0.0000 
     49 H49        -4.6222   -0.8535   -0.0209 H         1 UNK         0.0000 
     50 H50        -4.5856    0.9532    0.0129 H         1 UNK         0.0000 
     51 H51        -5.7601    0.0926   -1.0319 H         1 UNK         0.0000 
     52 H52        -6.6511   -0.7181   -4.7187 H         1 UNK         0.0000 
     53 H53        -5.2999    0.1746   -5.4827 H         1 UNK         0.0000 
     54 H54        -6.6176    1.0820   -4.6791 H         1 UNK         0.0000 
     55 H55         4.4488    1.0846   -0.0483 H         1 UNK         0.0000 
     56 H56         5.0430    3.4720   -0.0969 H         1 UNK         0.0000 
     57 H57        -0.9231    0.0597   -4.4511 H         1 UNK         0.0000 
     58 H58        -3.2910    0.1208   -5.1077 H         1 UNK         0.0000 
@<TRIPOS>BOND
     1    1    2 nc   
     2    1   12 nc   
     3    1   19 nc   
     4    1   29 nc   
     5    1   38 nc   
     6    1   48 nc   
     7    2    3 1    
     8    3   11 am   BACKBONE|DICT|INTERRES
     9    3    4 1    
    10    4    5 1    
    11    4    6 2    
    12    5   14 1    
    13    5   13 1    
    14    5   15 1    
    15    6    9 1    
    16    6    7 1    
    17    7    8 1    
    18    8   17 1    
    19    8   18 1    
    20    8   16 1    
    21    9   10 2    
    22    9   56 1    
    23   10   11 1    
    24   10   55 1    
    25   11   12 2    
    26   19   20 1    
    27   20   21 2    
    28   20   28 1    
    29   21   22 1    
    30   21   23 1    
    31   22   32 1    
    32   22   30 1    
    33   22   31 1    
    34   23   24 1    
    35   23   26 2    
    36   24   25 1    
    37   25   33 1    
    38   25   35 1    
    39   25   34 1    
    40   26   36 1    
    41   26   27 1    
    42   27   37 1    
    43   27   28 2    
    44   28   29 2    
    45   38   39 1    
    46   39   40 1    
    47   39   47 am   BACKBONE|DICT|INTERRES
    48   40   41 1    
    49   40   42 2    
    50   41   49 1    
    51   41   50 1    
    52   41   51 1    
    53   42   43 1    
    54   42   45 1    
    55   43   44 1    
    56   44   52 1    
    57   44   53 1    
    58   44   54 1    
    59   45   46 2    
    60   45   58 1    
    61   46   47 1    
    62   46   57 1    
    63   47   48 2    
@<TRIPOS>SUBSTRUCTURE
     1 UNK         1 GROUP             0       ****    0 ROOT    
@<TRIPOS>MOLECULE
077_c1
95   100    1
SMALL
USER_CHARGES


@<TRIPOS>ATOM
      1 Fe1         0.0006    0.0516    0.0511 Fe        1 UNK         0.0000 
      2 O2          1.4594    6.1325   -0.1514 O.3       1 UNK         0.0000 
      3 C3          0.4059    5.5439   -0.9008 C.3       1 UNK         0.0000 
      4 C4          0.5681    4.0020   -1.0520 C.3       1 UNK         0.0000 
      5 H5         -0.1918    3.6232   -1.7399 H         1 UNK         0.0000 
      6 C6          0.3266    3.2954    0.3235 C.2       1 UNK         0.0000 
      7 O7         -0.2659    2.1730    0.2549 O.co2     1 UNK         0.0000 
      8 O8          0.9077    3.8839    1.2726 O.co2     1 UNK         0.0000 
      9 N9          1.9087    3.5789   -1.4839 N.am      1 UNK         0.0000 
     10 C10         2.3736    3.5795   -2.7403 C.2       1 UNK         0.0000 
     11 O11         1.8513    4.2123   -3.6643 O.2       1 UNK         0.0000 
     12 C12         3.6322    2.7265   -3.0264 C.3       1 UNK         0.0000 
     13 H13         3.4797    2.3324   -4.0437 H         1 UNK         0.0000 
     14 C14         4.9599    3.5324   -3.0524 C.3       1 UNK         0.0000 
     15 C15         5.2703    4.3795   -1.8009 C.3       1 UNK         0.0000 
     16 C16         6.5550    5.2103   -1.9239 C.3       1 UNK         0.0000 
     17 C17         6.4973    6.2779   -3.0278 C.3       1 UNK         0.0000 
     18 N18         7.7375    7.0747   -3.0754 N.4       1 UNK         0.0000 
     19 H19         7.6646    7.7539   -3.8220 H         1 UNK         0.0000 
     20 H20         7.8706    7.5550   -2.1948 H         1 UNK         0.0000 
     21 H21         8.5274    6.4656   -3.2487 H         1 UNK         0.0000 
     22 N22         3.7026    1.5356   -2.1730 N.am      1 UNK         0.0000 
     23 C23         4.2136    0.3633   -2.5256 C.2       1 UNK         0.0000 
     24 O24         5.1481    0.2700   -3.3244 O.2       1 UNK         0.0000 
     25 C25         3.3956   -0.8270   -2.0471 C.ar      1 UNK         0.0000 
     26 C26         2.4025   -0.7830   -1.0224 C.ar      1 UNK         0.0000 
     27 O27         2.1809    0.2967   -0.3249 O.co2     1 UNK         0.0000 
     28 C28         1.6097   -1.9332   -0.8017 C.ar      1 UNK         0.0000 
     29 O29         0.6519   -1.9643    0.0411 O.co2     1 UNK         0.0000 
     30 C30         1.7868   -3.0879   -1.5735 C.ar      1 UNK         0.0000 
     31 C31         2.7587   -3.1216   -2.5649 C.ar      1 UNK         0.0000 
     32 C32         3.5580   -2.0125   -2.7870 C.ar      1 UNK         0.0000 
     33 H33         1.4668    5.5603    0.6521 H         1 UNK         0.0000 
     34 H34         0.2842    6.0277   -1.8778 H         1 UNK         0.0000 
     35 H35        -0.5061    5.7684   -0.3353 H         1 UNK         0.0000 
     36 H36         2.4495    3.1177   -0.7554 H         1 UNK         0.0000 
     37 H37         5.7831    2.8409   -3.2388 H         1 UNK         0.0000 
     38 H38         4.8964    4.1762   -3.9352 H         1 UNK         0.0000 
     39 H39         5.3546    3.7156   -0.9352 H         1 UNK         0.0000 
     40 H40         4.4353    5.0479   -1.5726 H         1 UNK         0.0000 
     41 H41         6.7403    5.6959   -0.9594 H         1 UNK         0.0000 
     42 H42         7.4011    4.5339   -2.0942 H         1 UNK         0.0000 
     43 H43         5.6517    6.9444   -2.8620 H         1 UNK         0.0000 
     44 H44         6.3607    5.8178   -4.0070 H         1 UNK         0.0000 
     45 H45         2.9651    1.3687   -1.4754 H         1 UNK         0.0000 
     46 H46         1.1369   -3.9359   -1.4305 H         1 UNK         0.0000 
     47 H47         2.8658   -3.9999   -3.1815 H         1 UNK         0.0000 
     48 H48         4.2790   -2.0630   -3.5878 H         1 UNK         0.0000 
     49 O49        -1.4583   -0.1569    6.1307 O.3       1 UNK         0.0000 
     50 C50        -0.4050   -0.9063    5.5419 C.3       1 UNK         0.0000 
     51 C51        -0.5667   -1.0551    4.0001 C.3       1 UNK         0.0000 
     52 H52         0.1938   -1.7423    3.6201 H         1 UNK         0.0000 
     53 C53        -0.3249    0.3220    3.2957 C.2       1 UNK         0.0000 
     54 O54         0.2661    0.2559    2.1726 O.co2     1 UNK         0.0000 
     55 O55        -0.9063    1.2699    3.8855 O.co2     1 UNK         0.0000 
     56 N56        -1.9070   -1.4867    3.5754 N.am      1 UNK         0.0000 
     57 C57        -2.3721   -2.7431    3.5750 C.2       1 UNK         0.0000 
     58 O58        -1.8489   -3.6674    4.2067 O.2       1 UNK         0.0000 
     59 C59        -3.6313   -3.0282    2.7231 C.3       1 UNK         0.0000 
     60 H60        -3.4786   -4.0446    2.3272 H         1 UNK         0.0000 
     61 C61        -4.9580   -3.0564    3.5304 C.3       1 UNK         0.0000 
     62 C62        -5.2686   -1.8065    4.3797 C.3       1 UNK         0.0000 
     63 C63        -6.5527   -1.9313    5.2112 C.3       1 UNK         0.0000 
     64 C64        -6.4949   -3.0371    6.2769 C.3       1 UNK         0.0000 
     65 N65        -7.7349   -3.0862    7.0737 N.4       1 UNK         0.0000 
     66 H66        -7.6614   -3.8338    7.7517 H         1 UNK         0.0000 
     67 H67        -7.8678   -2.2063    7.5553 H         1 UNK         0.0000 
     68 H68        -8.5249   -3.2587    6.4644 H         1 UNK         0.0000 
     69 N69        -3.7037   -2.1725    1.5338 N.am      1 UNK         0.0000 
     70 C70        -4.2141   -2.5247    0.3615 C.2       1 UNK         0.0000 
     71 O71        -5.1491   -3.3231    0.2675 O.2       1 UNK         0.0000 
     72 C72        -3.3950   -2.0467   -0.8285 C.ar      1 UNK         0.0000 
     73 C73        -2.4017   -1.0219   -0.7838 C.ar      1 UNK         0.0000 
     74 O74        -2.1797   -0.3247    0.2960 O.co2     1 UNK         0.0000 
     75 C75        -1.6084   -0.8019   -1.9336 C.ar      1 UNK         0.0000 
     76 O76        -0.6504    0.0407   -1.9643 O.co2     1 UNK         0.0000 
     77 C77        -1.7844   -1.5743   -3.0882 C.ar      1 UNK         0.0000 
     78 C78        -2.7561   -2.5662   -3.1220 C.ar      1 UNK         0.0000 
     79 C79        -3.5560   -2.7878   -2.0132 C.ar      1 UNK         0.0000 
     80 H80        -1.4648    0.6472    5.5592 H         1 UNK         0.0000 
     81 H81        -0.2849   -1.8839    6.0246 H         1 UNK         0.0000 
     82 H82         0.5071   -0.3420    5.7682 H         1 UNK         0.0000 
     83 H83        -2.4481   -0.7573    3.1165 H         1 UNK         0.0000 
     84 H84        -5.7818   -3.2424    2.8396 H         1 UNK         0.0000 
     85 H85        -4.8934   -3.9401    4.1730 H         1 UNK         0.0000 
     86 H86        -5.3537   -0.9397    3.7173 H         1 UNK         0.0000 
     87 H87        -4.4332   -1.5787    5.0479 H         1 UNK         0.0000 
     88 H88        -6.7382   -0.9675    5.6983 H         1 UNK         0.0000 
     89 H89        -7.3990   -2.1005    4.5349 H         1 UNK         0.0000 
     90 H90        -5.6501   -2.8733    6.9450 H         1 UNK         0.0000 
     91 H91        -6.3581   -4.0155    5.8148 H         1 UNK         0.0000 
     92 H92        -2.9658   -1.4751    1.3674 H         1 UNK         0.0000 
     93 H93        -1.1338   -1.4322   -3.9358 H         1 UNK         0.0000 
     94 H94        -2.8622   -3.1836   -4.0000 H         1 UNK         0.0000 
     95 H95        -4.2768   -3.5891   -2.0639 H         1 UNK         0.0000 
@<TRIPOS>BOND
     1    1    7 nc   
     2    1   27 nc   
     3    1   29 nc   
     4    1   54 nc   
     5    1   74 nc   
     6    1   76 nc   
     7    2   33 1    
     8    2    3 1    
     9    3   35 1    
    10    3    4 1    
    11    3   34 1    
    12    4    5 1    
    13    4    6 1    
    14    4    9 1    
    15    6    8 2    
    16    6    7 1    
    17    9   36 1    
    18    9   10 am   BACKBONE|DICT|INTERRES
    19   10   11 2    
    20   10   12 1    
    21   12   13 1    
    22   12   22 1    
    23   12   14 1    
    24   14   15 1    
    25   14   37 1    
    26   14   38 1    
    27   15   40 1    
    28   15   39 1    
    29   15   16 1    
    30   16   41 1    
    31   16   17 1    
    32   16   42 1    
    33   17   43 1    
    34   17   18 1    
    35   17   44 1    
    36   18   20 1    
    37   18   19 1    
    38   18   21 1    
    39   22   45 1    
    40   22   23 am   BACKBONE|DICT|INTERRES
    41   23   25 1    
    42   23   24 2    
    43   25   26 ar   
    44   25   32 ar   
    45   26   28 ar   
    46   26   27 1    
    47   28   29 1    
    48   28   30 ar   
    49   30   46 1    
    50   30   31 ar   
    51   31   32 ar   
    52   31   47 1    
    53   32   48 1    
    54   49   80 1    
    55   49   50 1    
    56   50   82 1    
    57   50   81 1    
    58   50   51 1    
    59   51   52 1    
    60   51   53 1    
    61   51   56 1    
    62   53   55 2    
    63   53   54 1    
    64   56   83 1    
    65   56   57 am   BACKBONE|DICT|INTERRES
    66   57   58 2    
    67   57   59 1    
    68   59   60 1    
    69   59   61 1    
    70   59   69 1    
    71   61   85 1    
    72   61   62 1    
    73   61   84 1    
    74   62   87 1    
    75   62   63 1    
    76   62   86 1    
    77   63   88 1    
    78   63   64 1    
    79   63   89 1    
    80   64   90 1    
    81   64   65 1    
    82   64   91 1    
    83   65   67 1    
    84   65   66 1    
    85   65   68 1    
    86   69   92 1    
    87   69   70 am   BACKBONE|DICT|INTERRES
    88   70   71 2    
    89   70   72 1    
    90   72   73 ar   
    91   72   79 ar   
    92   73   74 1    
    93   73   75 ar   
    94   75   76 1    
    95   75   77 ar   
    96   77   78 ar   
    97   77   93 1    
    98   78   79 ar   
    99   78   94 1    
   100   79   95 1    
@<TRIPOS>SUBSTRUCTURE
     1 UNK         1 GROUP             0       ****    0 ROOT    
@<TRIPOS>MOLECULE
078_c1
75   78    1
SMALL
USER_CHARGES


@<TRIPOS>ATOM
      1 Fe1         0.0104    0.0456   -0.0515 Fe        1 UNK         0.0000 
      2 O2         -0.1689   -1.9961   -0.4819 O.co2     1 UNK         0.0000 
      3 C3         -0.6786   -2.7437   -1.3540 C.2       1 UNK         0.0000 
      4 O4         -1.5950   -3.5475   -1.0670 O.co2     1 UNK         0.0000 
      5 C5         -0.3458   -2.6958   -2.8745 C.3       1 UNK         0.0000 
      6 H6         -0.1416   -3.7324   -3.1793 H         1 UNK         0.0000 
      7 N7         -1.7290   -2.4335   -3.4609 N.4       1 UNK         0.0000 
      8 H8         -2.3248   -3.2154   -3.1845 H         1 UNK         0.0000 
      9 H9         -1.7321   -2.3251   -4.4587 H         1 UNK         0.0000 
     10 H10        -2.0779   -1.5889   -3.0194 H         1 UNK         0.0000 
     11 C11         0.7414   -1.7363   -3.5289 C.3       1 UNK         0.0000 
     12 C12         2.0772   -1.4299   -2.7798 C.3       1 UNK         0.0000 
     13 C13         2.4731    0.0993   -2.5514 C.3       1 UNK         0.0000 
     14 N14         2.0676    0.7314   -1.2600 N.am      1 UNK         0.0000 
     15 O15         2.1856   -0.0759   -0.2125 O.co2     1 UNK         0.0000 
     16 C16         1.5221    1.9625   -1.0688 C.2       1 UNK         0.0000 
     17 O17         0.8000    2.0821   -0.0696 O.co2     1 UNK         0.0000 
     18 C18         1.5556    3.0315   -2.0199 C.2       1 UNK         0.0000 
     19 C19         2.5876    3.5815   -2.6952 C.2       1 UNK         0.0000 
     20 C20         4.0578    3.2696   -2.4677 C.3       1 UNK         0.0000 
     21 C21         2.2297    4.6241   -3.7417 C.3       1 UNK         0.0000 
     22 C22         1.8002    3.9386   -5.0456 C.3       1 UNK         0.0000 
     23 O23         1.2428    4.8500   -5.9560 O.3       1 UNK         0.0000 
     24 H24         1.0185   -2.2101   -4.4779 H         1 UNK         0.0000 
     25 H25         0.3395   -0.8109   -3.9309 H         1 UNK         0.0000 
     26 H26         2.1832   -2.0450   -1.8672 H         1 UNK         0.0000 
     27 H27         2.8688   -1.8472   -3.4155 H         1 UNK         0.0000 
     28 H28         3.5727    0.1290   -2.5965 H         1 UNK         0.0000 
     29 H29         2.1490    0.7052   -3.4099 H         1 UNK         0.0000 
     30 H30         0.5885    3.4410   -2.1838 H         1 UNK         0.0000 
     31 H31         4.6935    3.9456   -3.0509 H         1 UNK         0.0000 
     32 H32         4.3286    2.2549   -2.7600 H         1 UNK         0.0000 
     33 H33         4.3291    3.4089   -1.4154 H         1 UNK         0.0000 
     34 H34         1.3921    5.2000   -3.3546 H         1 UNK         0.0000 
     35 H35         3.0398    5.3297   -3.9084 H         1 UNK         0.0000 
     36 H36         1.0225    3.1965   -4.8371 H         1 UNK         0.0000 
     37 H37         2.6402    3.3897   -5.4918 H         1 UNK         0.0000 
     38 H38         1.6994    5.6981   -5.8888 H         1 UNK         0.0000 
     39 O39         0.1852    0.4775    1.9934 O.co2     1 UNK         0.0000 
     40 C40         0.6672    1.3624    2.7417 C.2       1 UNK         0.0000 
     41 O41         1.5845    1.0989    3.5548 O.co2     1 UNK         0.0000 
     42 C42         0.3025    2.8768    2.6929 C.3       1 UNK         0.0000 
     43 H43         0.0781    3.1760    3.7271 H         1 UNK         0.0000 
     44 N44         1.6746    3.4945    2.4427 N.4       1 UNK         0.0000 
     45 H45         2.2641    3.2451    3.2364 H         1 UNK         0.0000 
     46 H46         1.6535    4.4906    2.3179 H         1 UNK         0.0000 
     47 H47         2.0440    3.0495    1.6089 H         1 UNK         0.0000 
     48 C48        -0.7825    3.5095    1.7187 C.3       1 UNK         0.0000 
     49 C49        -2.1154    2.7553    1.4243 C.3       1 UNK         0.0000 
     50 C50        -2.5073    2.5253   -0.1041 C.3       1 UNK         0.0000 
     51 N51        -2.0575    1.2506   -0.7373 N.am      1 UNK         0.0000 
     52 O52        -2.1649    0.1992    0.0649 O.co2     1 UNK         0.0000 
     53 C53        -1.4966    1.0791   -1.9632 C.2       1 UNK         0.0000 
     54 O54        -0.7744    0.0785   -2.0900 O.co2     1 UNK         0.0000 
     55 C55        -1.5186    2.0470   -3.0151 C.2       1 UNK         0.0000 
     56 C56        -2.5556    2.6850   -3.6015 C.2       1 UNK         0.0000 
     57 C57        -4.0221    2.3850   -3.3498 C.3       1 UNK         0.0000 
     58 C58        -2.1972    3.7516   -4.6234 C.3       1 UNK         0.0000 
     59 C59        -1.7602    5.0427   -3.9179 C.3       1 UNK         0.0000 
     60 O60        -1.2277    5.9859   -4.8107 O.3       1 UNK         0.0000 
     61 H61        -1.0641    4.4687    2.1693 H         1 UNK         0.0000 
     62 H62        -0.3805    3.8863    0.7831 H         1 UNK         0.0000 
     63 H63        -2.2162    1.8423    2.0399 H         1 UNK         0.0000 
     64 H64        -2.9104    3.3898    1.8391 H         1 UNK         0.0000 
     65 H65        -3.6061    2.5308   -0.1375 H         1 UNK         0.0000 
     66 H66        -2.2121    3.3973   -0.7047 H         1 UNK         0.0000 
     67 H67        -0.5453    2.2616   -3.3801 H         1 UNK         0.0000 
     68 H68        -4.6563    2.9424   -4.0478 H         1 UNK         0.0000 
     69 H69        -4.3427    2.6523   -2.3420 H         1 UNK         0.0000 
     70 H70        -4.2348    1.3214   -3.5054 H         1 UNK         0.0000 
     71 H71        -1.3602    3.3700   -5.2039 H         1 UNK         0.0000 
     72 H72        -3.0067    3.9350   -5.3253 H         1 UNK         0.0000 
     73 H73        -0.9664    4.8210   -3.1983 H         1 UNK         0.0000 
     74 H74        -2.5899    5.4691   -3.3408 H         1 UNK         0.0000 
     75 H75        -1.6332    5.8828   -5.6809 H         1 UNK         0.0000 
@<TRIPOS>BOND
     1    1    2 nc   
     2    1   15 nc   
     3    1   17 nc   
     4    1   39 nc   
     5    1   52 nc   
     6    1   54 nc   
     7    2    3 1    
     8    3    4 2    
     9    3    5 1    
    10    5    6 1    
    11    5    7 1    
    12    5   11 1    
    13    7    8 1    
    14    7   10 1    
    15    7    9 1    
    16   11   12 1    
    17   11   24 1    
    18   11   25 1    
    19   12   13 1    
    20   12   26 1    
    21   12   27 1    
    22   13   28 1    
    23   13   14 1    
    24   13   29 1    
    25   14   16 am   BACKBONE|DICT|INTERRES
    26   14   15 1    
    27   16   18 1    
    28   16   17 2    
    29   18   19 2    
    30   18   30 1    
    31   19   20 1    
    32   19   21 1    
    33   20   33 1    
    34   20   31 1    
    35   20   32 1    
    36   21   34 1    
    37   21   22 1    
    38   21   35 1    
    39   22   36 1    
    40   22   23 1    
    41   22   37 1    
    42   23   38 1    
    43   39   40 1    
    44   40   41 2    
    45   40   42 1    
    46   42   43 1    
    47   42   44 1    
    48   42   48 1    
    49   44   45 1    
    50   44   46 1    
    51   44   47 1    
    52   48   61 1    
    53   48   49 1    
    54   48   62 1    
    55   49   64 1    
    56   49   63 1    
    57   49   50 1    
    58   50   65 1    
    59   50   51 1    
    60   50   66 1    
    61   51   52 1    
    62   51   53 am   BACKBONE|DICT|INTERRES
    63   53   55 1    
    64   53   54 2    
    65   55   56 2    
    66   55   67 1    
    67   56   57 1    
    68   56   58 1    
    69   57   69 1    
    70   57   68 1    
    71   57   70 1    
    72   58   59 1    
    73   58   71 1    
    74   58   72 1    
    75   59   73 1    
    76   59   74 1    
    77   59   60 1    
    78   60   75 1    
@<TRIPOS>SUBSTRUCTURE
     1 UNK         1 GROUP             0       ****    0 ROOT    
@<TRIPOS>MOLECULE
080_c1
78   82    1
SMALL
USER_CHARGES


@<TRIPOS>ATOM
      1 Fe1        -0.9935    0.4709   -1.3662 Fe        1 UNK         0.0000 
      2 O2         -2.5942    1.5505   -1.7710 O.co2     1 UNK         0.0000 
      3 C3         -2.3689    2.7430   -1.9986 C.2       1 UNK         0.0000 
      4 N4         -1.1451    3.0605   -2.4302 N.am      1 UNK         0.0000 
      5 O5         -0.2626    2.1169   -2.7465 O.co2     1 UNK         0.0000 
      6 C6         -0.6861    4.4514   -2.5902 C.3       1 UNK         0.0000 
      7 C7          0.4781    4.8239   -1.6346 C.3       1 UNK         0.0000 
      8 C8          0.0600    5.0321   -0.1519 C.3       1 UNK         0.0000 
      9 C9          1.2249    5.2341    0.8605 C.3       1 UNK         0.0000 
     10 H10         0.8464    5.6342    1.8048 H         1 UNK         0.0000 
     11 N11         2.2589    6.2152    0.3759 N.4       1 UNK         0.0000 
     12 H12         1.8555    7.1082    0.1336 H         1 UNK         0.0000 
     13 H13         2.6835    5.7809   -0.4352 H         1 UNK         0.0000 
     14 H14         2.9769    6.3118    1.0799 H         1 UNK         0.0000 
     15 C15         1.9997    3.9136    1.1449 C.2       1 UNK         0.0000 
     16 O16         3.1208    3.7511    0.6688 O.2       1 UNK         0.0000 
     17 N17         1.3799    3.0187    1.9179 N.am      1 UNK         0.0000 
     18 C18         1.6937    1.5772    1.9456 C.3       1 UNK         0.0000 
     19 H19         2.5850    1.3741    1.3428 H         1 UNK         0.0000 
     20 C20         2.0238    1.1251    3.3941 C.3       1 UNK         0.0000 
     21 H21         2.7680    1.8395    3.7462 H         1 UNK         0.0000 
     22 O22         0.9473    1.2966    4.2967 O.3       1 UNK         0.0000 
     23 C23         2.7521   -0.2305    3.5427 C.3       1 UNK         0.0000 
     24 C24         0.5329    0.8992    1.1388 C.2       1 UNK         0.0000 
     25 O25         0.4161    1.2861   -0.0299 O.co2     1 UNK         0.0000 
     26 N26        -0.4481    0.0167    1.4979 N.am      1 UNK         0.0000 
     27 O27        -1.4603   -0.1996    0.6486 O.co2     1 UNK         0.0000 
     28 C28        -0.4738   -0.9595    2.5923 C.3       1 UNK         0.0000 
     29 C29        -0.1420   -2.3857    2.1001 C.3       1 UNK         0.0000 
     30 C30        -0.2811   -3.4449    3.2024 C.3       1 UNK         0.0000 
     31 C31         0.3849   -4.7856    2.8284 C.3       1 UNK         0.0000 
     32 H32         1.4620   -4.6023    2.7891 H         1 UNK         0.0000 
     33 C33         0.0957   -5.8347    3.9171 C.2       1 UNK         0.0000 
     34 O34         1.2272   -6.1670    4.5823 O.3       1 UNK         0.0000 
     35 O35        -0.9962   -6.3228    4.1000 O.2       1 UNK         0.0000 
     36 N36        -0.0987   -5.3180    1.5406 N.am      1 UNK         0.0000 
     37 C37         0.7361   -5.7288    0.5663 C.2       1 UNK         0.0000 
     38 O38         1.9471   -5.5853    0.6428 O.2       1 UNK         0.0000 
     39 C39         0.2013   -6.4297   -0.7207 C.3       1 UNK         0.0000 
     40 H40         0.5762   -7.4548   -0.6628 H         1 UNK         0.0000 
     41 N41        -1.2923   -6.6088   -0.6449 N.4       1 UNK         0.0000 
     42 H42        -1.5239   -7.1836    0.1543 H         1 UNK         0.0000 
     43 H43        -1.6053   -7.0759   -1.4845 H         1 UNK         0.0000 
     44 H44        -1.7352   -5.7046   -0.5828 H         1 UNK         0.0000 
     45 C45         0.7100   -5.8136   -2.0583 C.3       1 UNK         0.0000 
     46 C46         0.0599   -4.4869   -2.5554 C.3       1 UNK         0.0000 
     47 C47         0.4404   -3.1952   -1.7812 C.3       1 UNK         0.0000 
     48 N48        -0.3290   -1.9792   -2.0886 N.am      1 UNK         0.0000 
     49 O49         0.3406   -0.8345   -2.0498 O.co2     1 UNK         0.0000 
     50 C50        -1.6596   -1.9012   -2.0815 C.2       1 UNK         0.0000 
     51 O51        -2.0506   -0.7392   -1.9331 O.co2     1 UNK         0.0000 
     52 H52        -0.3814    4.6082   -3.6333 H         1 UNK         0.0000 
     53 H53        -1.5019    5.1647   -2.4233 H         1 UNK         0.0000 
     54 H54         0.9170    5.7488   -2.0060 H         1 UNK         0.0000 
     55 H55         1.2565    4.0621   -1.7204 H         1 UNK         0.0000 
     56 H56        -0.5482    4.1814    0.1681 H         1 UNK         0.0000 
     57 H57        -0.6201    5.8844   -0.0887 H         1 UNK         0.0000 
     58 H58         0.4649    3.2028    2.2941 H         1 UNK         0.0000 
     59 H59         0.9644    2.1887    4.6515 H         1 UNK         0.0000 
     60 H60         2.2114   -1.0936    3.1597 H         1 UNK         0.0000 
     61 H61         3.7040   -0.2077    3.0078 H         1 UNK         0.0000 
     62 H62         2.9842   -0.4289    4.5918 H         1 UNK         0.0000 
     63 H63        -1.4708   -0.9490    3.0455 H         1 UNK         0.0000 
     64 H64         0.1644   -0.7291    3.4277 H         1 UNK         0.0000 
     65 H65        -0.8085   -2.6523    1.2779 H         1 UNK         0.0000 
     66 H66         0.8763   -2.3935    1.7045 H         1 UNK         0.0000 
     67 H67        -1.3395   -3.5777    3.4344 H         1 UNK         0.0000 
     68 H68         0.1832   -3.0764    4.1208 H         1 UNK         0.0000 
     69 H69        -1.0860   -5.5068    1.5660 H         1 UNK         0.0000 
     70 H70         1.7988   -5.6996   -2.0249 H         1 UNK         0.0000 
     71 H71         0.5660   -6.5637   -2.8389 H         1 UNK         0.0000 
     72 H72         0.3905   -4.3261   -3.5839 H         1 UNK         0.0000 
     73 H73        -1.0191   -4.6092   -2.6055 H         1 UNK         0.0000 
     74 H74         1.5122   -3.0044   -1.9007 H         1 UNK         0.0000 
     75 H75         0.3292   -3.3497   -0.7096 H         1 UNK         0.0000 
     76 H76         0.9840   -6.7994    5.2600 H         1 UNK         0.0000 
     77 H77        -2.2422   -2.8330   -2.1272 H         1 UNK         0.0000 
     78 H78        -3.0564    3.5929   -1.8553 H         1 UNK         0.0000 
@<TRIPOS>BOND
     1    1    2 nc   
     2    1    5 nc   
     3    1   25 nc   
     4    1   27 nc   
     5    1   49 nc   
     6    1   51 nc   
     7    2    3 2    
     8    3    4 am   BACKBONE|DICT|INTERRES
     9    3   78 1    
    10    4    5 1    
    11    4    6 1    
    12    6   53 1    
    13    6    7 1    
    14    6   52 1    
    15    7    8 1    
    16    7   54 1    
    17    7   55 1    
    18    8   57 1    
    19    8   56 1    
    20    8    9 1    
    21    9   15 1    
    22    9   10 1    
    23    9   11 1    
    24   11   14 1    
    25   11   12 1    
    26   11   13 1    
    27   15   17 am   BACKBONE|DICT|INTERRES
    28   15   16 2    
    29   17   18 1    
    30   17   58 1    
    31   18   19 1    
    32   18   20 1    
    33   18   24 1    
    34   20   23 1    
    35   20   21 1    
    36   20   22 1    
    37   22   59 1    
    38   23   62 1    
    39   23   60 1    
    40   23   61 1    
    41   24   25 2    
    42   24   26 am   BACKBONE|DICT|INTERRES
    43   26   28 1    
    44   26   27 1    
    45   28   63 1    
    46   28   64 1    
    47   28   29 1    
    48   29   30 1    
    49   29   65 1    
    50   29   66 1    
    51   30   67 1    
    52   30   68 1    
    53   30   31 1    
    54   31   32 1    
    55   31   33 1    
    56   31   36 1    
    57   33   35 2    
    58   33   34 1    
    59   34   76 1    
    60   36   37 am   BACKBONE|DICT|INTERRES
    61   36   69 1    
    62   37   38 2    
    63   37   39 1    
    64   39   41 1    
    65   39   40 1    
    66   39   45 1    
    67   41   44 1    
    68   41   42 1    
    69   41   43 1    
    70   45   46 1    
    71   45   70 1    
    72   45   71 1    
    73   46   73 1    
    74   46   47 1    
    75   46   72 1    
    76   47   75 1    
    77   47   48 1    
    78   47   74 1    
    79   48   50 am   BACKBONE|DICT|INTERRES
    80   48   49 1    
    81   50   51 2    
    82   50   77 1    
@<TRIPOS>SUBSTRUCTURE
     1 UNK         1 GROUP             0       ****    0 ROOT    
@<TRIPOS>MOLECULE
082_c1
104   109    1
SMALL
USER_CHARGES


@<TRIPOS>ATOM
      1 Fe1        -0.3958    1.0057    0.2854 Fe        1 UNK         0.0000 
      2 O2          2.5126   -4.5491    6.8039 O.3       1 UNK         0.0000 
      3 C3          1.3261   -4.0168    6.2410 C.3       1 UNK         0.0000 
      4 C4          1.6806   -3.3323    4.9109 C.3       1 UNK         0.0000 
      5 C5          0.5822   -2.6591    4.0793 C.2       1 UNK         0.0000 
      6 C6         -0.8424   -2.6033    4.6449 C.3       1 UNK         0.0000 
      7 C7          0.9734   -2.1215    2.8930 C.2       1 UNK         0.0000 
      8 C8          0.2179   -1.3397    1.9397 C.2       1 UNK         0.0000 
      9 O9          0.7386   -0.3732    1.3788 O.co2     1 UNK         0.0000 
     10 N10        -1.0825   -1.5685    1.6279 N.am      1 UNK         0.0000 
     11 O11        -1.8549   -0.6109    1.0857 O.co2     1 UNK         0.0000 
     12 C12        -1.5496   -2.9330    1.3435 C.3       1 UNK         0.0000 
     13 C13        -1.5432   -3.2726   -0.1666 C.3       1 UNK         0.0000 
     14 C14        -2.0108   -4.7123   -0.4477 C.3       1 UNK         0.0000 
     15 C15        -1.9140   -5.1657   -1.9292 C.3       1 UNK         0.0000 
     16 H16        -2.3024   -6.1870   -1.9655 H         1 UNK         0.0000 
     17 N17        -0.5234   -5.2307   -2.4288 N.am      1 UNK         0.0000 
     18 C18        -0.0556   -4.6894   -3.5595 C.2       1 UNK         0.0000 
     19 O19         1.1227   -4.8630   -3.8520 O.2       1 UNK         0.0000 
     20 C20        -2.9526   -4.3888   -2.8008 C.2       1 UNK         0.0000 
     21 O21        -4.1532   -4.3183   -2.5637 O.2       1 UNK         0.0000 
     22 N22        -2.4663   -3.7811   -3.8901 N.am      1 UNK         0.0000 
     23 C23        -1.0781   -3.8568   -4.4005 C.3       1 UNK         0.0000 
     24 H24        -1.1232   -4.4106   -5.3400 H         1 UNK         0.0000 
     25 C25        -0.4722   -2.4655   -4.7331 C.3       1 UNK         0.0000 
     26 C26        -0.2204   -1.5998   -3.4878 C.3       1 UNK         0.0000 
     27 C27         0.2069   -0.1419   -3.7779 C.3       1 UNK         0.0000 
     28 N28         0.3148    0.6762   -2.5563 N.am      1 UNK         0.0000 
     29 O29        -0.7608    0.5857   -1.7692 O.co2     1 UNK         0.0000 
     30 C30         1.4385    1.3128   -2.1184 C.2       1 UNK         0.0000 
     31 O31         1.4560    1.6125   -0.9196 O.co2     1 UNK         0.0000 
     32 C32         2.5540    1.6788   -2.9693 C.2       1 UNK         0.0000 
     33 C33         2.5341    2.3283   -4.1623 C.2       1 UNK         0.0000 
     34 C34         3.8503    2.7014   -4.8364 C.3       1 UNK         0.0000 
     35 C35         1.2824    2.7544   -4.9368 C.3       1 UNK         0.0000 
     36 C36         1.1448    4.2491   -5.2623 C.3       1 UNK         0.0000 
     37 O37         1.0849    5.0361   -4.0742 O.3       1 UNK         0.0000 
     38 C38         0.7513    6.3342   -4.1511 C.2       1 UNK         0.0000 
     39 O39         0.4994    6.9322   -5.2029 O.2       1 UNK         0.0000 
     40 C40         0.7886    7.0322   -2.7843 C.3       1 UNK         0.0000 
     41 H41         1.7830    6.9378   -2.3436 H         1 UNK         0.0000 
     42 N42         0.6392    8.5006   -3.1148 N.4       1 UNK         0.0000 
     43 H43         0.7230    9.0787   -2.2905 H         1 UNK         0.0000 
     44 H44         1.3395    8.7485   -3.8039 H         1 UNK         0.0000 
     45 H45        -0.2645    8.6299   -3.5527 H         1 UNK         0.0000 
     46 C46        -0.3009    6.5515   -1.7859 C.3       1 UNK         0.0000 
     47 C47        -0.0338    5.1976   -1.0958 C.3       1 UNK         0.0000 
     48 C48        -0.9669    4.9769    0.1195 C.3       1 UNK         0.0000 
     49 N49        -0.7488    3.6668    0.7488 N.am      1 UNK         0.0000 
     50 O50        -1.6042    2.7397    0.3081 O.co2     1 UNK         0.0000 
     51 C51         0.3138    3.3256    1.5183 C.2       1 UNK         0.0000 
     52 O52         0.4890    2.1149    1.5904 O.co2     1 UNK         0.0000 
     53 C53         1.2319    4.2914    2.0982 C.2       1 UNK         0.0000 
     54 C54         2.2669    3.9960    2.9340 C.2       1 UNK         0.0000 
     55 C55         2.6319    2.6183    3.5189 C.3       1 UNK         0.0000 
     56 C56         3.2094    5.0919    3.4192 C.3       1 UNK         0.0000 
     57 C57         4.6909    4.8594    3.0709 C.3       1 UNK         0.0000 
     58 O58         5.4410    5.9772    3.4911 O.3       1 UNK         0.0000 
     59 H59         2.9672   -3.8792    7.3258 H         1 UNK         0.0000 
     60 H60         0.8762   -3.3170    6.9502 H         1 UNK         0.0000 
     61 H61         0.6185   -4.8337    6.0767 H         1 UNK         0.0000 
     62 H62         2.1794   -4.0649    4.2749 H         1 UNK         0.0000 
     63 H63         2.4297   -2.5680    5.1206 H         1 UNK         0.0000 
     64 H64        -1.5168   -3.2135    4.0486 H         1 UNK         0.0000 
     65 H65        -1.2230   -1.5840    4.6382 H         1 UNK         0.0000 
     66 H66        -0.9444   -2.9713    5.6639 H         1 UNK         0.0000 
     67 H67         2.0123   -2.2262    2.6035 H         1 UNK         0.0000 
     68 H68        -2.5627   -3.0452    1.7392 H         1 UNK         0.0000 
     69 H69        -0.9683   -3.7037    1.8643 H         1 UNK         0.0000 
     70 H70        -0.5391   -3.1302   -0.5672 H         1 UNK         0.0000 
     71 H71        -2.1872   -2.5735   -0.7010 H         1 UNK         0.0000 
     72 H72        -1.4131   -5.3957    0.1573 H         1 UNK         0.0000 
     73 H73        -3.0349   -4.8342   -0.0874 H         1 UNK         0.0000 
     74 H74         0.1765   -5.7147   -1.8908 H         1 UNK         0.0000 
     75 H75        -3.1542   -3.2344   -4.3835 H         1 UNK         0.0000 
     76 H76         0.4572   -2.5762   -5.2954 H         1 UNK         0.0000 
     77 H77        -1.1599   -1.9387   -5.3973 H         1 UNK         0.0000 
     78 H78        -1.1459   -1.5908   -2.9134 H         1 UNK         0.0000 
     79 H79         0.5360   -2.0569   -2.8511 H         1 UNK         0.0000 
     80 H80        -0.5510    0.3266   -4.4091 H         1 UNK         0.0000 
     81 H81         1.1122   -0.1380   -4.3942 H         1 UNK         0.0000 
     82 H82         3.5097    1.4173   -2.5323 H         1 UNK         0.0000 
     83 H83         3.9587    2.2088   -5.8013 H         1 UNK         0.0000 
     84 H84         3.9278    3.7775   -4.9880 H         1 UNK         0.0000 
     85 H85         4.7122    2.4156   -4.2330 H         1 UNK         0.0000 
     86 H86         1.2770    2.1983   -5.8748 H         1 UNK         0.0000 
     87 H87         0.3713    2.4611   -4.4239 H         1 UNK         0.0000 
     88 H88         0.2199    4.3829   -5.8295 H         1 UNK         0.0000 
     89 H89         1.9475    4.5848   -5.9219 H         1 UNK         0.0000 
     90 H90        -0.3703    7.2905   -0.9859 H         1 UNK         0.0000 
     91 H91        -1.2866    6.5308   -2.2582 H         1 UNK         0.0000 
     92 H92         1.0035    5.1488   -0.7609 H         1 UNK         0.0000 
     93 H93        -0.1675    4.3792   -1.8084 H         1 UNK         0.0000 
     94 H94        -0.8959    5.7890    0.8463 H         1 UNK         0.0000 
     95 H95        -2.0019    5.0638   -0.2385 H         1 UNK         0.0000 
     96 H96         3.5985    2.2843    3.1473 H         1 UNK         0.0000 
     97 H97         2.6999    2.6867    4.6044 H         1 UNK         0.0000 
     98 H98         1.9431    1.8001    3.3349 H         1 UNK         0.0000 
     99 H99         2.9062    6.0572    3.0122 H         1 UNK         0.0000 
    100 H100        3.1014    5.1785    4.5005 H         1 UNK         0.0000 
    101 H101        5.0915    3.9587    3.5450 H         1 UNK         0.0000 
    102 H102        4.8242    4.7323    1.9934 H         1 UNK         0.0000 
    103 H103        5.6142    5.9179    4.4384 H         1 UNK         0.0000 
    104 H104        1.0626    5.3225    1.8117 H         1 UNK         0.0000 
@<TRIPOS>BOND
     1    1    9 nc   
     2    1   11 nc   
     3    1   29 nc   
     4    1   31 nc   
     5    1   50 nc   
     6    1   52 nc   
     7    2   59 1    
     8    2    3 1    
     9    3   60 1    
    10    3    4 1    
    11    3   61 1    
    12    4   63 1    
    13    4    5 1    
    14    4   62 1    
    15    5    6 1    
    16    5    7 2    
    17    6   65 1    
    18    6   66 1    
    19    6   64 1    
    20    7    8 1    
    21    7   67 1    
    22    8    9 2    
    23    8   10 am   BACKBONE|DICT|INTERRES
    24   10   11 1    
    25   10   12 1    
    26   12   68 1    
    27   12   69 1    
    28   12   13 1    
    29   13   14 1    
    30   13   70 1    
    31   13   71 1    
    32   14   73 1    
    33   14   72 1    
    34   14   15 1    
    35   15   16 1    
    36   15   17 1    
    37   15   20 1    
    38   17   74 1    
    39   17   18 am   BACKBONE|DICT|INTERRES
    40   18   19 2    
    41   18   23 1    
    42   20   21 2    
    43   20   22 am   BACKBONE|DICT|INTERRES
    44   22   23 1    
    45   22   75 1    
    46   23   24 1    
    47   23   25 1    
    48   25   26 1    
    49   25   76 1    
    50   25   77 1    
    51   26   78 1    
    52   26   79 1    
    53   26   27 1    
    54   27   28 1    
    55   27   80 1    
    56   27   81 1    
    57   28   30 am   BACKBONE|DICT|INTERRES
    58   28   29 1    
    59   30   32 1    
    60   30   31 2    
    61   32   82 1    
    62   32   33 2    
    63   33   34 1    
    64   33   35 1    
    65   34   85 1    
    66   34   83 1    
    67   34   84 1    
    68   35   87 1    
    69   35   36 1    
    70   35   86 1    
    71   36   37 1    
    72   36   88 1    
    73   36   89 1    
    74   37   38 1    
    75   38   40 1    
    76   38   39 2    
    77   40   41 1    
    78   40   46 1    
    79   40   42 1    
    80   42   43 1    
    81   42   44 1    
    82   42   45 1    
    83   46   47 1    
    84   46   90 1    
    85   46   91 1    
    86   47   92 1    
    87   47   48 1    
    88   47   93 1    
    89   48   49 1    
    90   48   94 1    
    91   48   95 1    
    92   49   51 am   BACKBONE|DICT|INTERRES
    93   49   50 1    
    94   51   52 2    
    95   51   53 1    
    96   53   54 2    
    97   53  104 1    
    98   54   56 1    
    99   54   55 1    
   100   55   97 1    
   101   55   96 1    
   102   55   98 1    
   103   56  100 1    
   104   56   57 1    
   105   56   99 1    
   106   57  101 1    
   107   57   58 1    
   108   57  102 1    
   109   58  103 1    
@<TRIPOS>SUBSTRUCTURE
     1 UNK         1 GROUP             0       ****    0 ROOT    
@<TRIPOS>MOLECULE
086_c1
110   114    1
SMALL
USER_CHARGES


@<TRIPOS>ATOM
      1 Fe1        -0.7209   -3.4340   -2.0850 Fe        1 UNK         0.0000 
      2 C2          2.8196   12.5866   -0.3576 C.3       1 UNK         0.0000 
      3 C3          1.2906   12.5876   -0.2052 C.3       1 UNK         0.0000 
      4 C4          0.6390   11.2139   -0.4470 C.3       1 UNK         0.0000 
      5 C5          0.8029   10.6933   -1.8893 C.3       1 UNK         0.0000 
      6 C6         -0.0189    9.4294   -2.1999 C.3       1 UNK         0.0000 
      7 C7          0.4312    8.1864   -1.4141 C.3       1 UNK         0.0000 
      8 C8         -0.3691    6.9323   -1.7925 C.3       1 UNK         0.0000 
      9 C9          0.0882    5.6930   -1.0123 C.3       1 UNK         0.0000 
     10 C10        -0.7470    4.4444   -1.3658 C.3       1 UNK         0.0000 
     11 C11        -0.4642    3.2326   -0.4795 C.2       1 UNK         0.0000 
     12 O12        -0.0828    3.3840    0.6889 O.2       1 UNK         0.0000 
     13 N13        -0.7026    2.0596   -1.0743 N.am      1 UNK         0.0000 
     14 C14        -0.4522    0.6939   -0.6270 C.3       1 UNK         0.0000 
     15 H15        -1.3956    0.3778   -0.1753 H         1 UNK         0.0000 
     16 C16        -0.2279   -0.2305   -1.8855 C.3       1 UNK         0.0000 
     17 H17         0.1963    0.3952   -2.6846 H         1 UNK         0.0000 
     18 O18         0.6030   -1.3697   -1.7256 O.co2     1 UNK         0.0000 
     19 C19        -1.6068   -0.6286   -2.5144 C.2       1 UNK         0.0000 
     20 O20        -1.7738   -1.8835   -2.6206 O.co2     1 UNK         0.0000 
     21 O21        -2.4340    0.2705   -2.7701 O.co2     1 UNK         0.0000 
     22 C22         0.5910    0.5640    0.5158 C.2       1 UNK         0.0000 
     23 O23         1.7489    0.9772    0.4091 O.2       1 UNK         0.0000 
     24 N24         0.0937    0.0992    1.6730 N.am      1 UNK         0.0000 
     25 C25         0.9349   -0.2598    2.8115 C.3       1 UNK         0.0000 
     26 H26         1.7561    0.4568    2.8828 H         1 UNK         0.0000 
     27 C27         0.1645   -0.2874    4.1476 C.3       1 UNK         0.0000 
     28 C28        -0.4307    1.0605    4.5696 C.3       1 UNK         0.0000 
     29 N29         0.6522    2.1464    4.6011 N.4       1 UNK         0.0000 
     30 H30         1.0178    2.2843    3.6640 H         1 UNK         0.0000 
     31 H31         1.4094    1.8754    5.2131 H         1 UNK         0.0000 
     32 H32         0.2622    3.0202    4.9209 H         1 UNK         0.0000 
     33 C33         1.5778   -1.6188    2.5640 C.2       1 UNK         0.0000 
     34 O34         2.7911   -1.7405    2.6965 O.2       1 UNK         0.0000 
     35 N35         0.7205   -2.5557    2.1676 N.am      1 UNK         0.0000 
     36 C36         1.0317   -3.7308    1.3828 C.3       1 UNK         0.0000 
     37 H37         1.5811   -3.3089    0.5370 H         1 UNK         0.0000 
     38 C38        -0.2474   -4.4702    0.8033 C.3       1 UNK         0.0000 
     39 H39        -0.5659   -5.2136    1.5587 H         1 UNK         0.0000 
     40 O40         0.0782   -5.0532   -0.4522 O.co2     1 UNK         0.0000 
     41 C41        -1.5265   -3.5774    0.6337 C.2       1 UNK         0.0000 
     42 O42        -2.0048   -3.5457   -0.5322 O.co2     1 UNK         0.0000 
     43 O43        -1.8381   -2.7973    1.5715 O.co2     1 UNK         0.0000 
     44 C44         2.0094   -4.7175    2.0523 C.2       1 UNK         0.0000 
     45 O45         2.1689   -4.7397    3.2744 O.2       1 UNK         0.0000 
     46 N46         2.5889   -5.5595    1.1940 N.am      1 UNK         0.0000 
     47 C47         3.2159   -6.8105    1.5700 C.3       1 UNK         0.0000 
     48 C48         2.5217   -7.9031    0.7518 C.2       1 UNK         0.0000 
     49 O49         1.9867   -8.8579    1.3138 O.2       1 UNK         0.0000 
     50 N50         2.5196   -7.7481   -0.5797 N.am      1 UNK         0.0000 
     51 C51         1.8813   -8.6623   -1.5281 C.3       1 UNK         0.0000 
     52 H52         1.1099   -9.2238   -0.9956 H         1 UNK         0.0000 
     53 C53         2.9054   -9.6863   -2.0848 C.2       1 UNK         0.0000 
     54 O54         3.9999   -9.4110   -2.5266 O.2       1 UNK         0.0000 
     55 O55         2.4383  -10.9616   -2.0226 O.3       1 UNK         0.0000 
     56 C56         1.1515   -7.8724   -2.6482 C.3       1 UNK         0.0000 
     57 C57         2.0364   -6.9436   -3.5178 C.3       1 UNK         0.0000 
     58 C58         1.2513   -6.1614   -4.6052 C.3       1 UNK         0.0000 
     59 N59         0.3013   -5.1608   -4.0748 N.am      1 UNK         0.0000 
     60 O60         0.8597   -4.2805   -3.2383 O.co2     1 UNK         0.0000 
     61 C61        -1.0453   -5.1668   -4.2513 C.2       1 UNK         0.0000 
     62 O62        -1.7047   -4.4086   -3.5342 O.co2     1 UNK         0.0000 
     63 C63        -1.7680   -6.0195   -5.2967 C.3       1 UNK         0.0000 
     64 C64        -1.6313   -5.4656   -6.7283 C.3       1 UNK         0.0000 
     65 H65        -1.6992   -4.3732   -6.7333 H         1 UNK         0.0000 
     66 O66        -0.3919   -5.8478   -7.2797 O.3       1 UNK         0.0000 
     67 C67        -2.7118   -6.0218   -7.6610 C.3       1 UNK         0.0000 
     68 H68         3.2321   13.5705   -0.1301 H         1 UNK         0.0000 
     69 H69         3.2838   11.8670    0.3189 H         1 UNK         0.0000 
     70 H70         3.1205   12.3351   -1.3754 H         1 UNK         0.0000 
     71 H71         1.0389   12.9247    0.8019 H         1 UNK         0.0000 
     72 H72         0.8576   13.3240   -0.8847 H         1 UNK         0.0000 
     73 H73         1.0515   10.4928    0.2600 H         1 UNK         0.0000 
     74 H74        -0.4244   11.2902   -0.2142 H         1 UNK         0.0000 
     75 H75         0.5045   11.4780   -2.5860 H         1 UNK         0.0000 
     76 H76         1.8558   10.4926   -2.0935 H         1 UNK         0.0000 
     77 H77        -1.0767    9.6228   -2.0116 H         1 UNK         0.0000 
     78 H78         0.0618    9.2186   -3.2680 H         1 UNK         0.0000 
     79 H79         1.4934    8.0077   -1.5936 H         1 UNK         0.0000 
     80 H80         0.3239    8.3665   -0.3433 H         1 UNK         0.0000 
     81 H81        -1.4301    7.1061   -1.6033 H         1 UNK         0.0000 
     82 H82        -0.2748    6.7402   -2.8631 H         1 UNK         0.0000 
     83 H83         1.1421    5.4941   -1.2206 H         1 UNK         0.0000 
     84 H84         0.0132    5.8987    0.0572 H         1 UNK         0.0000 
     85 H85        -0.5826    4.1785   -2.4140 H         1 UNK         0.0000 
     86 H86        -1.8094    4.6536   -1.2417 H         1 UNK         0.0000 
     87 H87        -1.1528    2.0377   -1.9856 H         1 UNK         0.0000 
     88 H88        -0.8143   -0.3460    1.6092 H         1 UNK         0.0000 
     89 H89        -0.6478   -1.0148    4.0789 H         1 UNK         0.0000 
     90 H90         0.8163   -0.6705    4.9348 H         1 UNK         0.0000 
     91 H91        -1.1979    1.4200    3.8806 H         1 UNK         0.0000 
     92 H92        -0.8485    1.0159    5.5775 H         1 UNK         0.0000 
     93 H93        -0.2888   -2.3680    2.1214 H         1 UNK         0.0000 
     94 H94         2.1152   -5.5228    0.2908 H         1 UNK         0.0000 
     95 H95         3.1142   -7.0179    2.6374 H         1 UNK         0.0000 
     96 H96         4.2771   -6.7790    1.3226 H         1 UNK         0.0000 
     97 H97         2.9628   -6.9397   -0.9881 H         1 UNK         0.0000 
     98 H98         0.6362   -8.5776   -3.3005 H         1 UNK         0.0000 
     99 H99         0.3731   -7.2740   -2.1704 H         1 UNK         0.0000 
    100 H100        2.8073   -7.5300   -4.0082 H         1 UNK         0.0000 
    101 H101        2.5643   -6.2300   -2.8810 H         1 UNK         0.0000 
    102 H102        0.7621   -6.8947   -5.2577 H         1 UNK         0.0000 
    103 H103        1.9606   -5.6229   -5.2351 H         1 UNK         0.0000 
    104 H104       -1.5072   -7.0749   -5.2193 H         1 UNK         0.0000 
    105 H105       -2.8223   -5.9647   -5.0301 H         1 UNK         0.0000 
    106 H106       -0.0019   -5.0921   -7.7274 H         1 UNK         0.0000 
    107 H107       -2.5627   -5.7025   -8.6952 H         1 UNK         0.0000 
    108 H108       -2.7165   -7.1141   -7.6476 H         1 UNK         0.0000 
    109 H109       -3.7038   -5.6875   -7.3504 H         1 UNK         0.0000 
    110 H110        3.1600  -11.5175   -2.3214 H         1 UNK         0.0000 
@<TRIPOS>BOND
     1    1   18 nc   
     2    1   20 nc   
     3    1   40 nc   
     4    1   42 nc   
     5    1   60 nc   
     6    1   62 nc   
     7    2    3 1    
     8    2   68 1    
     9    2   69 1    
    10    2   70 1    
    11    3   71 1    
    12    3    4 1    
    13    3   72 1    
    14    4   74 1    
    15    4   73 1    
    16    4    5 1    
    17    5    6 1    
    18    5   75 1    
    19    5   76 1    
    20    6   77 1    
    21    6    7 1    
    22    6   78 1    
    23    7   80 1    
    24    7    8 1    
    25    7   79 1    
    26    8   81 1    
    27    8    9 1    
    28    8   82 1    
    29    9   84 1    
    30    9   10 1    
    31    9   83 1    
    32   10   86 1    
    33   10   11 1    
    34   10   85 1    
    35   11   12 2    
    36   11   13 am   BACKBONE|DICT|INTERRES
    37   13   14 1    
    38   13   87 1    
    39   14   15 1    
    40   14   22 1    
    41   14   16 1    
    42   16   17 1    
    43   16   18 1    
    44   16   19 1    
    45   19   20 1    
    46   19   21 2    
    47   22   24 am   BACKBONE|DICT|INTERRES
    48   22   23 2    
    49   24   88 1    
    50   24   25 1    
    51   25   26 1    
    52   25   27 1    
    53   25   33 1    
    54   27   28 1    
    55   27   90 1    
    56   27   89 1    
    57   28   29 1    
    58   28   92 1    
    59   28   91 1    
    60   29   32 1    
    61   29   31 1    
    62   29   30 1    
    63   33   34 2    
    64   33   35 am   BACKBONE|DICT|INTERRES
    65   35   93 1    
    66   35   36 1    
    67   36   37 1    
    68   36   44 1    
    69   36   38 1    
    70   38   39 1    
    71   38   40 1    
    72   38   41 1    
    73   41   43 2    
    74   41   42 1    
    75   44   45 2    
    76   44   46 am   BACKBONE|DICT|INTERRES
    77   46   47 1    
    78   46   94 1    
    79   47   95 1    
    80   47   48 1    
    81   47   96 1    
    82   48   49 2    
    83   48   50 am   BACKBONE|DICT|INTERRES
    84   50   51 1    
    85   50   97 1    
    86   51   52 1    
    87   51   53 1    
    88   51   56 1    
    89   53   55 1    
    90   53   54 2    
    91   55  110 1    
    92   56   99 1    
    93   56   57 1    
    94   56   98 1    
    95   57  101 1    
    96   57   58 1    
    97   57  100 1    
    98   58   59 1    
    99   58  102 1    
   100   58  103 1    
   101   59   60 1    
   102   59   61 am   BACKBONE|DICT|INTERRES
   103   61   63 1    
   104   61   62 2    
   105   63  104 1    
   106   63  105 1    
   107   63   64 1    
   108   64   65 1    
   109   64   66 1    
   110   64   67 1    
   111   66  106 1    
   112   67  108 1    
   113   67  109 1    
   114   67  107 1    
@<TRIPOS>SUBSTRUCTURE
     1 UNK         1 GROUP             0       ****    0 ROOT    
@<TRIPOS>MOLECULE
088_c1
136   144    1
SMALL
USER_CHARGES


@<TRIPOS>ATOM
      1 Fe1        -3.2857   -1.0704   -0.7509 Fe        1 UNK         0.0000 
      2 O2         -4.1361   -2.6979    0.2075 O.co2     1 UNK         0.0000 
      3 C3         -3.5892   -3.7866    0.4669 C.ar      1 UNK         0.0000 
      4 C4         -4.4232   -4.8524    0.7890 C.ar      1 UNK         0.0000 
      5 C5         -3.8984   -6.1153    1.0631 C.ar      1 UNK         0.0000 
      6 C6         -2.5217   -6.3034    0.9806 C.ar      1 UNK         0.0000 
      7 C7         -1.6620   -5.2261    0.6487 C.ar      1 UNK         0.0000 
      8 C8         -2.1885   -3.9271    0.3912 C.ar      1 UNK         0.0000 
      9 O9         -1.5136   -2.8609    0.0302 O.co2     1 UNK         0.0000 
     10 C10        -0.1900   -5.5555    0.5843 C.2       1 UNK         0.0000 
     11 O11         0.2348   -6.4694   -0.1335 O.2       1 UNK         0.0000 
     12 N12         0.5967   -4.9823    1.5228 N.am      1 UNK         0.0000 
     13 C13         1.9627   -5.4481    1.7709 C.3       1 UNK         0.0000 
     14 H14         2.3585   -5.7961    0.8142 H         1 UNK         0.0000 
     15 C15         2.0010   -6.6992    2.7659 C.3       1 UNK         0.0000 
     16 C16         1.3223   -8.0841    2.5777 C.3       1 UNK         0.0000 
     17 C17         2.2448   -9.2356    3.1091 C.3       1 UNK         0.0000 
     18 C18         1.5871  -10.3884    3.8906 C.3       1 UNK         0.0000 
     19 N19         2.5838  -11.4407    4.2166 N.4       1 UNK         0.0000 
     20 H20         2.1794  -12.1608    4.8004 H         1 UNK         0.0000 
     21 H21         3.3707  -11.0370    4.7072 H         1 UNK         0.0000 
     22 H22         2.9253  -11.8694    3.3671 H         1 UNK         0.0000 
     23 C23         3.0368   -4.4003    2.2738 C.2       1 UNK         0.0000 
     24 O24         3.8363   -4.7914    3.1215 O.2       1 UNK         0.0000 
     25 N25         3.3107   -3.1210    1.9178 N.am      1 UNK         0.0000 
     26 C26         2.8764   -1.9490    1.1315 C.3       1 UNK         0.0000 
     27 H27         3.8633   -1.4857    1.1358 H         1 UNK         0.0000 
     28 C28         2.2214   -0.8710    2.0092 C.2       1 UNK         0.0000 
     29 O29         2.0224   -1.0364    3.2201 O.2       1 UNK         0.0000 
     30 O30         2.2757    0.3648    1.4444 O.3       1 UNK         0.0000 
     31 C31         2.4053    1.5193    2.2769 C.3       1 UNK         0.0000 
     32 C32         2.0466    2.8987    1.6614 C.3       1 UNK         0.0000 
     33 H33         2.6755    3.6011    2.2144 H         1 UNK         0.0000 
     34 N34         0.6427    3.3019    1.8741 N.am      1 UNK         0.0000 
     35 C35         0.2177    3.9663    2.9706 C.2       1 UNK         0.0000 
     36 O36         0.9669    4.1594    3.9374 O.2       1 UNK         0.0000 
     37 C37        -1.2195    4.5831    2.9758 C.3       1 UNK         0.0000 
     38 H38        -1.8395    3.9800    3.6489 H         1 UNK         0.0000 
     39 C39        -1.2433    6.1092    3.3945 C.3       1 UNK         0.0000 
     40 C40        -0.6431    6.6068    4.7396 C.3       1 UNK         0.0000 
     41 C41        -0.7678    8.1427    4.8958 C.3       1 UNK         0.0000 
     42 C42        -0.1548    8.7176    6.1909 C.3       1 UNK         0.0000 
     43 N43        -0.3450   10.1846    6.2917 N.4       1 UNK         0.0000 
     44 H44         0.1155   10.6573    5.5261 H         1 UNK         0.0000 
     45 H45        -1.3287   10.4152    6.2730 H         1 UNK         0.0000 
     46 H46         0.0460   10.5286    7.1590 H         1 UNK         0.0000 
     47 N47        -1.7530    4.5873    1.6216 N.am      1 UNK         0.0000 
     48 C48        -2.9168    4.1821    1.0871 C.2       1 UNK         0.0000 
     49 O49        -3.3409    4.9204    0.1851 O.2       1 UNK         0.0000 
     50 C50        -3.7575    3.0024    1.5721 C.ar      1 UNK         0.0000 
     51 C51        -4.8698    3.2855    2.3979 C.ar      1 UNK         0.0000 
     52 C52        -5.9485    2.4110    2.4670 C.ar      1 UNK         0.0000 
     53 C53        -5.9648    1.2636    1.6717 C.ar      1 UNK         0.0000 
     54 C54        -4.8470    0.9406    0.8882 C.ar      1 UNK         0.0000 
     55 O55        -4.9354   -0.0407    0.1014 O.co2     1 UNK         0.0000 
     56 C56        -3.6749    1.7295    0.9297 C.ar      1 UNK         0.0000 
     57 O57        -2.6244    1.2631    0.3074 O.co2     1 UNK         0.0000 
     58 C58         2.4217    3.1554    0.2006 C.2       1 UNK         0.0000 
     59 O59         2.9918    4.1972   -0.1432 O.2       1 UNK         0.0000 
     60 O60         2.1046    2.1562   -0.6493 O.3       1 UNK         0.0000 
     61 C61         2.4532    2.2342   -2.0350 C.3       1 UNK         0.0000 
     62 C62         2.3774    0.8660   -2.7705 C.3       1 UNK         0.0000 
     63 H63         1.3301    0.6152   -2.9372 H         1 UNK         0.0000 
     64 C64         3.0912   -0.2351   -1.9652 C.2       1 UNK         0.0000 
     65 O65         4.2950   -0.5113   -2.1190 O.2       1 UNK         0.0000 
     66 O66         2.2900   -0.8691   -1.0832 O.3       1 UNK         0.0000 
     67 C67         2.7133   -2.0646   -0.4117 C.3       1 UNK         0.0000 
     68 N68         3.1226    0.9206   -4.0511 N.am      1 UNK         0.0000 
     69 C69         2.7842    1.0300   -5.3580 C.2       1 UNK         0.0000 
     70 O70         3.7131    1.0090   -6.1740 O.2       1 UNK         0.0000 
     71 C71         1.3374    1.2118   -5.9106 C.3       1 UNK         0.0000 
     72 H72         1.1390    2.2722   -5.7518 H         1 UNK         0.0000 
     73 C73         1.2048    0.9618   -7.4604 C.3       1 UNK         0.0000 
     74 C74         1.7281    2.1126   -8.3596 C.3       1 UNK         0.0000 
     75 C75         2.1641    1.6568   -9.7652 C.3       1 UNK         0.0000 
     76 C76         2.6294    2.8327  -10.6463 C.3       1 UNK         0.0000 
     77 N77         3.1506    2.3816  -11.9543 N.4       1 UNK         0.0000 
     78 H78         3.4389    3.1814  -12.5014 H         1 UNK         0.0000 
     79 H79         2.4386    1.8805  -12.4666 H         1 UNK         0.0000 
     80 H80         3.9511    1.7788  -11.8222 H         1 UNK         0.0000 
     81 N81         0.2793    0.4364   -5.2465 N.am      1 UNK         0.0000 
     82 C82        -0.9266    0.9648   -4.9840 C.2       1 UNK         0.0000 
     83 O83        -1.1604    2.1649   -5.1959 O.2       1 UNK         0.0000 
     84 C84        -2.0667   -0.0205   -4.8301 C.ar      1 UNK         0.0000 
     85 C85        -2.7440   -0.3617   -6.0212 C.ar      1 UNK         0.0000 
     86 C86        -3.9180   -1.1030   -5.9911 C.ar      1 UNK         0.0000 
     87 C87        -4.4368   -1.5057   -4.7556 C.ar      1 UNK         0.0000 
     88 C88        -3.7406   -1.2363   -3.5649 C.ar      1 UNK         0.0000 
     89 O89        -4.2436   -1.6134   -2.4763 O.co2     1 UNK         0.0000 
     90 C90        -2.5142   -0.5314   -3.5797 C.ar      1 UNK         0.0000 
     91 O91        -1.8973   -0.3802   -2.4499 O.co2     1 UNK         0.0000 
     92 H92        -5.4866   -4.6658    0.8258 H         1 UNK         0.0000 
     93 H93        -4.5804   -6.9114    1.3355 H         1 UNK         0.0000 
     94 H94        -2.1138   -7.2840    1.1703 H         1 UNK         0.0000 
     95 H95         0.2464   -4.1330    1.9191 H         1 UNK         0.0000 
     96 H96         1.7880   -6.3583    3.7824 H         1 UNK         0.0000 
     97 H97         3.0537   -6.9833    2.7520 H         1 UNK         0.0000 
     98 H98         1.0924   -8.2559    1.5259 H         1 UNK         0.0000 
     99 H99         0.3644   -8.0849    3.1040 H         1 UNK         0.0000 
    100 H100        3.0251   -8.8403    3.7638 H         1 UNK         0.0000 
    101 H101        2.7764   -9.6438    2.2483 H         1 UNK         0.0000 
    102 H102        0.7567  -10.8287    3.3375 H         1 UNK         0.0000 
    103 H103        1.1751   -9.9917    4.8205 H         1 UNK         0.0000 
    104 H104        4.0606   -2.8341    2.5240 H         1 UNK         0.0000 
    105 H105        1.8629    1.4075    3.2170 H         1 UNK         0.0000 
    106 H106        3.4567    1.5521    2.5731 H         1 UNK         0.0000 
    107 H107       -0.0560    2.9919    1.1939 H         1 UNK         0.0000 
    108 H108       -2.2884    6.4221    3.3713 H         1 UNK         0.0000 
    109 H109       -0.7469    6.6879    2.6083 H         1 UNK         0.0000 
    110 H110       -1.1161    6.0907    5.5747 H         1 UNK         0.0000 
    111 H111        0.4133    6.3525    4.7752 H         1 UNK         0.0000 
    112 H112       -1.8206    8.4225    4.8365 H         1 UNK         0.0000 
    113 H113       -0.2845    8.6050    4.0332 H         1 UNK         0.0000 
    114 H114       -0.6133    8.2454    7.0620 H         1 UNK         0.0000 
    115 H115        0.9137    8.4935    6.2339 H         1 UNK         0.0000 
    116 H116       -1.2625    5.2256    1.0287 H         1 UNK         0.0000 
    117 H117       -4.9587    4.2506    2.8676 H         1 UNK         0.0000 
    118 H118       -6.8337    2.6633    3.0363 H         1 UNK         0.0000 
    119 H119       -6.8562    0.6467    1.6287 H         1 UNK         0.0000 
    120 H120        3.4719    2.6267   -2.1249 H         1 UNK         0.0000 
    121 H121        1.8187    2.9520   -2.5565 H         1 UNK         0.0000 
    122 H122        3.7006   -2.3812   -0.7744 H         1 UNK         0.0000 
    123 H123        2.0470   -2.8763   -0.6930 H         1 UNK         0.0000 
    124 H124        4.1109    0.8087   -3.8838 H         1 UNK         0.0000 
    125 H125        0.1684    0.7777   -7.7441 H         1 UNK         0.0000 
    126 H126        1.7140    0.0274   -7.7009 H         1 UNK         0.0000 
    127 H127        0.9477    2.8719   -8.4391 H         1 UNK         0.0000 
    128 H128        2.5644    2.6021   -7.8653 H         1 UNK         0.0000 
    129 H129        2.9751    0.9352   -9.6463 H         1 UNK         0.0000 
    130 H130        1.3405    1.1258  -10.2475 H         1 UNK         0.0000 
    131 H131        3.4147    3.3970  -10.1375 H         1 UNK         0.0000 
    132 H132        1.7980    3.5220  -10.8100 H         1 UNK         0.0000 
    133 H133        0.4437   -0.5086   -4.9664 H         1 UNK         0.0000 
    134 H134       -2.3627    0.0028   -6.9653 H         1 UNK         0.0000 
    135 H135       -4.4480   -1.3614   -6.9039 H         1 UNK         0.0000 
    136 H136       -5.3709   -2.0419   -4.6941 H         1 UNK         0.0000 
@<TRIPOS>BOND
     1    1    2 nc   
     2    1    9 nc   
     3    1   55 nc   
     4    1   57 nc   
     5    1   89 nc   
     6    1   91 nc   
     7    2    3 1    
     8    3    4 ar   
     9    3    8 ar   
    10    4    5 ar   
    11    4   92 1    
    12    5    6 ar   
    13    5   93 1    
    14    6   94 1    
    15    6    7 ar   
    16    7   10 1    
    17    7    8 ar   
    18    8    9 1    
    19   10   12 am   BACKBONE|DICT|INTERRES
    20   10   11 2    
    21   12   13 1    
    22   12   95 1    
    23   13   14 1    
    24   13   23 1    
    25   13   15 1    
    26   15   16 1    
    27   15   96 1    
    28   15   97 1    
    29   16   17 1    
    30   16   99 1    
    31   16   98 1    
    32   17  100 1    
    33   17   18 1    
    34   17  101 1    
    35   18   19 1    
    36   18  103 1    
    37   18  102 1    
    38   19   21 1    
    39   19   20 1    
    40   19   22 1    
    41   23   24 2    
    42   23   25 am   BACKBONE|DICT|INTERRES
    43   25  104 1    
    44   25   26 1    
    45   26   27 1    
    46   26   28 1    
    47   26   67 1    
    48   28   29 2    
    49   28   30 1    
    50   30   31 1    
    51   31  105 1    
    52   31   32 1    
    53   31  106 1    
    54   32   34 1    
    55   32   33 1    
    56   32   58 1    
    57   34   35 am   BACKBONE|DICT|INTERRES
    58   34  107 1    
    59   35   37 1    
    60   35   36 2    
    61   37   39 1    
    62   37   38 1    
    63   37   47 1    
    64   39  108 1    
    65   39   40 1    
    66   39  109 1    
    67   40  111 1    
    68   40   41 1    
    69   40  110 1    
    70   41   42 1    
    71   41  112 1    
    72   41  113 1    
    73   42  115 1    
    74   42   43 1    
    75   42  114 1    
    76   43   45 1    
    77   43   46 1    
    78   43   44 1    
    79   47  116 1    
    80   47   48 am   BACKBONE|DICT|INTERRES
    81   48   49 2    
    82   48   50 1    
    83   50   51 ar   
    84   50   56 ar   
    85   51  117 1    
    86   51   52 ar   
    87   52  118 1    
    88   52   53 ar   
    89   53   54 ar   
    90   53  119 1    
    91   54   56 ar   
    92   54   55 1    
    93   56   57 1    
    94   58   59 2    
    95   58   60 1    
    96   60   61 1    
    97   61   62 1    
    98   61  120 1    
    99   61  121 1    
   100   62   63 1    
   101   62   64 1    
   102   62   68 1    
   103   64   66 1    
   104   64   65 2    
   105   66   67 1    
   106   67  122 1    
   107   67  123 1    
   108   68   69 am   BACKBONE|DICT|INTERRES
   109   68  124 1    
   110   69   70 2    
   111   69   71 1    
   112   71   72 1    
   113   71   81 1    
   114   71   73 1    
   115   73   74 1    
   116   73  125 1    
   117   73  126 1    
   118   74  128 1    
   119   74   75 1    
   120   74  127 1    
   121   75  129 1    
   122   75   76 1    
   123   75  130 1    
   124   76  131 1    
   125   76   77 1    
   126   76  132 1    
   127   77   80 1    
   128   77   78 1    
   129   77   79 1    
   130   81  133 1    
   131   81   82 am   BACKBONE|DICT|INTERRES
   132   82   84 1    
   133   82   83 2    
   134   84   90 ar   
   135   84   85 ar   
   136   85   86 ar   
   137   85  134 1    
   138   86   87 ar   
   139   86  135 1    
   140   87   88 ar   
   141   87  136 1    
   142   88   90 ar   
   143   88   89 1    
   144   90   91 1    
@<TRIPOS>SUBSTRUCTURE
     1 UNK         1 GROUP             0       ****    0 ROOT    
@<TRIPOS>MOLECULE
090_c1
107   111    1
SMALL
USER_CHARGES


@<TRIPOS>ATOM
      1 Fe1         0.0741    0.9363    0.7043 Fe        1 UNK         0.0000 
      2 O2         -3.2514    0.6708   -6.9777 O.3       1 UNK         0.0000 
      3 C3         -2.3105    0.1714   -6.0330 C.3       1 UNK         0.0000 
      4 C4         -2.8779    0.1268   -4.5900 C.3       1 UNK         0.0000 
      5 C5         -3.1099    1.4616   -3.8608 C.2       1 UNK         0.0000 
      6 C6         -3.8909    2.5014   -4.6684 C.3       1 UNK         0.0000 
      7 C7         -2.6974    1.8077   -2.6194 C.2       1 UNK         0.0000 
      8 C8         -1.8930    1.1305   -1.6285 C.2       1 UNK         0.0000 
      9 O9         -1.0197    1.7545   -1.0052 O.co2     1 UNK         0.0000 
     10 N10        -2.0760   -0.1426   -1.1549 N.am      1 UNK         0.0000 
     11 O11        -1.2907   -0.4695   -0.1410 O.co2     1 UNK         0.0000 
     12 C12        -2.9265   -1.2561   -1.6121 C.3       1 UNK         0.0000 
     13 C13        -3.4115   -2.2285   -0.4805 C.3       1 UNK         0.0000 
     14 C14        -3.5476   -3.7162   -0.8365 C.3       1 UNK         0.0000 
     15 C15        -2.2407   -4.4676   -1.2299 C.3       1 UNK         0.0000 
     16 H16        -1.8153   -3.9553   -2.0917 H         1 UNK         0.0000 
     17 C17        -2.5861   -5.8911   -1.7236 C.2       1 UNK         0.0000 
     18 O18        -2.5522   -6.2503   -2.8820 O.2       1 UNK         0.0000 
     19 O19        -3.0050   -6.6878   -0.7098 O.3       1 UNK         0.0000 
     20 N20        -1.1949   -4.5217   -0.1778 N.am      1 UNK         0.0000 
     21 C21         0.1067   -4.6675   -0.4980 C.2       1 UNK         0.0000 
     22 O22         0.5086   -4.6591   -1.6571 O.2       1 UNK         0.0000 
     23 C23         1.1658   -4.8946    0.6126 C.3       1 UNK         0.0000 
     24 H24         1.4549   -5.9309    0.4434 H         1 UNK         0.0000 
     25 C25         2.5044   -4.1188    0.3520 C.3       1 UNK         0.0000 
     26 C26         2.3041   -2.6288    0.4922 C.3       1 UNK         0.0000 
     27 C27         3.2340   -1.5252   -0.1201 C.3       1 UNK         0.0000 
     28 N28         2.7424   -0.1549    0.2238 N.am      1 UNK         0.0000 
     29 O29         1.7148   -0.1707    1.0522 O.co2     1 UNK         0.0000 
     30 C30         2.8533    1.0376   -0.4417 C.2       1 UNK         0.0000 
     31 O31         1.9079    1.8172   -0.1962 O.co2     1 UNK         0.0000 
     32 C32         3.8727    1.3666   -1.4138 C.2       1 UNK         0.0000 
     33 C33         5.2061    1.1088   -1.4310 C.2       1 UNK         0.0000 
     34 C34         5.9797    0.3362   -0.3675 C.3       1 UNK         0.0000 
     35 C35         6.0200    1.6793   -2.6150 C.3       1 UNK         0.0000 
     36 C36         7.5329    1.3711   -2.7471 C.3       1 UNK         0.0000 
     37 O37         8.2945    2.0681   -1.7743 O.3       1 UNK         0.0000 
     38 N38         0.6195   -4.9784    1.9944 N.am      1 UNK         0.0000 
     39 C39         0.0016   -4.2030    2.9233 C.2       1 UNK         0.0000 
     40 O40        -0.6319   -4.7772    3.8076 O.2       1 UNK         0.0000 
     41 C41        -0.0040   -2.6395    2.9915 C.3       1 UNK         0.0000 
     42 H42         0.3186   -2.1792    2.0668 H         1 UNK         0.0000 
     43 N43        -1.4471   -2.2415    3.0457 N.4       1 UNK         0.0000 
     44 H44        -1.8371   -2.5887    3.9104 H         1 UNK         0.0000 
     45 H45        -1.9609   -2.5797    2.2459 H         1 UNK         0.0000 
     46 H46        -1.4021   -1.2179    3.0185 H         1 UNK         0.0000 
     47 C47         0.7325   -2.1225    4.2796 C.3       1 UNK         0.0000 
     48 C48         0.9450   -0.5938    4.5671 C.3       1 UNK         0.0000 
     49 C49        -0.2763    0.3986    4.6585 C.3       1 UNK         0.0000 
     50 N50        -0.5985    1.0955    3.3884 N.am      1 UNK         0.0000 
     51 O51        -0.5545    0.3166    2.3432 O.co2     1 UNK         0.0000 
     52 C52        -0.4434    2.4158    3.0473 C.2       1 UNK         0.0000 
     53 O53        -0.1991    2.5238    1.8212 O.co2     1 UNK         0.0000 
     54 C54        -0.5801    3.4954    3.9967 C.2       1 UNK         0.0000 
     55 C55        -0.5136    4.8246    3.6805 C.2       1 UNK         0.0000 
     56 C56        -0.3056    5.3409    2.2475 C.3       1 UNK         0.0000 
     57 C57        -0.6622    5.8550    4.8081 C.3       1 UNK         0.0000 
     58 C58        -0.6554    7.3664    4.4874 C.3       1 UNK         0.0000 
     59 O59         0.6243    7.7896    4.0632 O.3       1 UNK         0.0000 
     60 H60        -2.8997    0.5934   -7.8697 H         1 UNK         0.0000 
     61 H61        -1.3910    0.7615   -6.0474 H         1 UNK         0.0000 
     62 H62        -2.0345   -0.8425   -6.3343 H         1 UNK         0.0000 
     63 H63        -3.8216   -0.4290   -4.5891 H         1 UNK         0.0000 
     64 H64        -2.1747   -0.4647   -4.0134 H         1 UNK         0.0000 
     65 H65        -4.8628    2.1260   -4.9935 H         1 UNK         0.0000 
     66 H66        -4.0676    3.4199   -4.1100 H         1 UNK         0.0000 
     67 H67        -3.3250    2.8053   -5.5516 H         1 UNK         0.0000 
     68 H68        -2.9690    2.7863   -2.2668 H         1 UNK         0.0000 
     69 H69        -3.7884   -0.8997   -2.1713 H         1 UNK         0.0000 
     70 H70        -2.3322   -1.8262   -2.3311 H         1 UNK         0.0000 
     71 H71        -2.7830   -2.2034    0.4027 H         1 UNK         0.0000 
     72 H72        -4.3661   -1.8439   -0.1299 H         1 UNK         0.0000 
     73 H73        -4.2676   -3.8020   -1.6485 H         1 UNK         0.0000 
     74 H74        -4.0080   -4.2214    0.0092 H         1 UNK         0.0000 
     75 H75        -1.5123   -4.7338    0.7487 H         1 UNK         0.0000 
     76 H76         2.8425   -4.3077   -0.6686 H         1 UNK         0.0000 
     77 H77         3.3006   -4.4767    1.0107 H         1 UNK         0.0000 
     78 H78         1.3114   -2.4108    0.0973 H         1 UNK         0.0000 
     79 H79         2.3144   -2.4781    1.5705 H         1 UNK         0.0000 
     80 H80         4.2374   -1.6790    0.2798 H         1 UNK         0.0000 
     81 H81         3.3179   -1.6665   -1.2020 H         1 UNK         0.0000 
     82 H82         3.4551    1.9471   -2.2223 H         1 UNK         0.0000 
     83 H83         5.3988    0.1807    0.5384 H         1 UNK         0.0000 
     84 H84         6.2924   -0.6376   -0.7554 H         1 UNK         0.0000 
     85 H85         6.8686    0.8864   -0.0579 H         1 UNK         0.0000 
     86 H86         5.5286    1.3561   -3.5345 H         1 UNK         0.0000 
     87 H87         5.8896    2.7624   -2.6125 H         1 UNK         0.0000 
     88 H88         7.8821    1.6867   -3.7342 H         1 UNK         0.0000 
     89 H89         7.7097    0.2978   -2.6968 H         1 UNK         0.0000 
     90 H90         9.2293    1.8670   -1.8828 H         1 UNK         0.0000 
     91 H91         0.5853   -5.9511    2.2686 H         1 UNK         0.0000 
     92 H92         1.7307   -2.5604    4.2790 H         1 UNK         0.0000 
     93 H93         0.2606   -2.5519    5.1659 H         1 UNK         0.0000 
     94 H94         1.6916   -0.2095    3.8681 H         1 UNK         0.0000 
     95 H95         1.4460   -0.5487    5.5383 H         1 UNK         0.0000 
     96 H96        -0.0747    1.1296    5.4447 H         1 UNK         0.0000 
     97 H97        -1.1703   -0.1184    5.0183 H         1 UNK         0.0000 
     98 H98        -1.0688    4.9423    1.5807 H         1 UNK         0.0000 
     99 H99         0.6707    5.0285    1.8830 H         1 UNK         0.0000 
    100 H100       -0.3419    6.4228    2.1268 H         1 UNK         0.0000 
    101 H101        0.1223    5.6567    5.5384 H         1 UNK         0.0000 
    102 H102       -1.5928    5.6332    5.3318 H         1 UNK         0.0000 
    103 H103       -0.9191    7.9292    5.3830 H         1 UNK         0.0000 
    104 H104       -1.4041    7.6082    3.7340 H         1 UNK         0.0000 
    105 H105        1.2389    7.7527    4.8006 H         1 UNK         0.0000 
    106 H106       -3.2113   -7.5191   -1.1436 H         1 UNK         0.0000 
    107 H107       -0.7528    3.1772    5.0091 H         1 UNK         0.0000 
@<TRIPOS>BOND
     1    1    9 nc   
     2    1   11 nc   
     3    1   29 nc   
     4    1   31 nc   
     5    1   51 nc   
     6    1   53 nc   
     7    2    3 1    
     8    2   60 1    
     9    3   61 1    
    10    3    4 1    
    11    3   62 1    
    12    4    5 1    
    13    4   64 1    
    14    4   63 1    
    15    5    7 2    
    16    5    6 1    
    17    6   66 1    
    18    6   65 1    
    19    6   67 1    
    20    7   68 1    
    21    7    8 1    
    22    8   10 am   BACKBONE|DICT|INTERRES
    23    8    9 2    
    24   10   11 1    
    25   10   12 1    
    26   12   13 1    
    27   12   69 1    
    28   12   70 1    
    29   13   72 1    
    30   13   71 1    
    31   13   14 1    
    32   14   74 1    
    33   14   15 1    
    34   14   73 1    
    35   15   16 1    
    36   15   20 1    
    37   15   17 1    
    38   17   19 1    
    39   17   18 2    
    40   19  106 1    
    41   20   75 1    
    42   20   21 am   BACKBONE|DICT|INTERRES
    43   21   23 1    
    44   21   22 2    
    45   23   24 1    
    46   23   38 1    
    47   23   25 1    
    48   25   26 1    
    49   25   77 1    
    50   25   76 1    
    51   26   79 1    
    52   26   27 1    
    53   26   78 1    
    54   27   28 1    
    55   27   80 1    
    56   27   81 1    
    57   28   29 1    
    58   28   30 am   BACKBONE|DICT|INTERRES
    59   30   32 1    
    60   30   31 2    
    61   32   33 2    
    62   32   82 1    
    63   33   34 1    
    64   33   35 1    
    65   34   85 1    
    66   34   83 1    
    67   34   84 1    
    68   35   87 1    
    69   35   36 1    
    70   35   86 1    
    71   36   37 1    
    72   36   88 1    
    73   36   89 1    
    74   37   90 1    
    75   38   91 1    
    76   38   39 am   BACKBONE|DICT|INTERRES
    77   39   40 2    
    78   39   41 1    
    79   41   42 1    
    80   41   43 1    
    81   41   47 1    
    82   43   44 1    
    83   43   45 1    
    84   43   46 1    
    85   47   48 1    
    86   47   93 1    
    87   47   92 1    
    88   48   49 1    
    89   48   95 1    
    90   48   94 1    
    91   49   97 1    
    92   49   96 1    
    93   49   50 1    
    94   50   51 1    
    95   50   52 am   BACKBONE|DICT|INTERRES
    96   52   54 1    
    97   52   53 2    
    98   54   55 2    
    99   54  107 1    
   100   55   57 1    
   101   55   56 1    
   102   56   98 1    
   103   56   99 1    
   104   56  100 1    
   105   57  102 1    
   106   57  101 1    
   107   57   58 1    
   108   58  103 1    
   109   58   59 1    
   110   58  104 1    
   111   59  105 1    
@<TRIPOS>SUBSTRUCTURE
     1 UNK         1 GROUP             0       ****    0 ROOT    
@<TRIPOS>MOLECULE
092_c1
83   87    1
SMALL
USER_CHARGES


@<TRIPOS>ATOM
      1 Fe1         0.7408    1.2152    0.1677 Fe        1 UNK         0.0000 
      2 C2          3.7754   -1.5086    0.4678 C.3       1 UNK         0.0000 
      3 C3          2.7036   -0.5495    0.9687 C.2       1 UNK         0.0000 
      4 O4          2.7162    0.6486    0.6720 O.co2     1 UNK         0.0000 
      5 N5          1.5703   -0.9464    1.5728 N.am      1 UNK         0.0000 
      6 O6          0.6557   -0.0343    1.8816 O.co2     1 UNK         0.0000 
      7 C7          1.1691   -2.3555    1.7603 C.3       1 UNK         0.0000 
      8 C8          0.6779   -3.0481    0.4559 C.3       1 UNK         0.0000 
      9 C9          0.2903   -4.5273    0.6830 C.3       1 UNK         0.0000 
     10 C10         0.0016   -5.3478   -0.5955 C.3       1 UNK         0.0000 
     11 C11        -1.3609   -5.0969   -1.2711 C.3       1 UNK         0.0000 
     12 N12        -1.4530   -3.8503   -2.0355 N.am      1 UNK         0.0000 
     13 C13        -2.4274   -2.9382   -1.8941 C.2       1 UNK         0.0000 
     14 O14        -3.2683   -2.9861   -1.0032 O.2       1 UNK         0.0000 
     15 C15        -2.4924   -1.8176   -2.9402 C.3       1 UNK         0.0000 
     16 C16        -2.5799   -0.3878   -2.3544 C.3       1 UNK         0.0000 
     17 C17        -1.2522    0.0974   -1.7603 C.2       1 UNK         0.0000 
     18 O18        -1.0721    0.3011   -0.5538 O.co2     1 UNK         0.0000 
     19 N19        -0.1531    0.3453   -2.5010 N.am      1 UNK         0.0000 
     20 O20         0.9392    0.7089   -1.8532 O.co2     1 UNK         0.0000 
     21 C21        -0.0786    0.5161   -3.9579 C.3       1 UNK         0.0000 
     22 C22         0.2942    1.9709   -4.3270 C.3       1 UNK         0.0000 
     23 C23         0.4810    2.2441   -5.8284 C.3       1 UNK         0.0000 
     24 C24         1.1079    3.6266   -6.1331 C.3       1 UNK         0.0000 
     25 C25         0.3141    4.8780   -5.6900 C.3       1 UNK         0.0000 
     26 N26         0.2021    5.1312   -4.2504 N.am      1 UNK         0.0000 
     27 C27         1.2093    5.3202   -3.3895 C.2       1 UNK         0.0000 
     28 O28         2.3889    5.1875   -3.6914 O.2       1 UNK         0.0000 
     29 C29         0.8357    5.8130   -1.9857 C.3       1 UNK         0.0000 
     30 C30         1.6377    5.1718   -0.8157 C.3       1 UNK         0.0000 
     31 C31         1.0498    3.8776   -0.2231 C.2       1 UNK         0.0000 
     32 O32         1.5247    2.7347   -0.3334 O.co2     1 UNK         0.0000 
     33 N33        -0.0484    3.8144    0.5589 N.am      1 UNK         0.0000 
     34 O34        -0.3594    2.5999    1.0103 O.co2     1 UNK         0.0000 
     35 C35        -0.9136    4.9208    0.9854 C.3       1 UNK         0.0000 
     36 C36        -0.4221    5.5173    2.3195 C.3       1 UNK         0.0000 
     37 C37        -1.3016    6.6510    2.8768 C.3       1 UNK         0.0000 
     38 C38        -0.6775    7.2522    4.1482 C.3       1 UNK         0.0000 
     39 N39        -1.5628    8.3785    4.6997 N.4       1 UNK         0.0000 
     40 H40        -2.4779    8.0239    4.9440 H         1 UNK         0.0000 
     41 H41        -1.1493    8.7779    5.5317 H         1 UNK         0.0000 
     42 H42        -1.6710    9.1146    4.0149 H         1 UNK         0.0000 
     43 H43         4.7466   -1.2358    0.8725 H         1 UNK         0.0000 
     44 H44         3.5696   -2.5482    0.7094 H         1 UNK         0.0000 
     45 H45         3.8122   -1.4136   -0.6158 H         1 UNK         0.0000 
     46 H46         1.9909   -2.9334    2.1972 H         1 UNK         0.0000 
     47 H47         0.3838   -2.4374    2.5190 H         1 UNK         0.0000 
     48 H48        -0.1792   -2.5043    0.0524 H         1 UNK         0.0000 
     49 H49         1.4685   -3.0141   -0.2964 H         1 UNK         0.0000 
     50 H50         1.1038   -5.0221    1.2184 H         1 UNK         0.0000 
     51 H51        -0.5817   -4.5738    1.3407 H         1 UNK         0.0000 
     52 H52         0.0109   -6.3984   -0.3037 H         1 UNK         0.0000 
     53 H53         0.8127   -5.2538   -1.3177 H         1 UNK         0.0000 
     54 H54        -1.5926   -5.9224   -1.9427 H         1 UNK         0.0000 
     55 H55        -2.1365   -5.1399   -0.5004 H         1 UNK         0.0000 
     56 H56        -0.7753   -3.7121   -2.7663 H         1 UNK         0.0000 
     57 H57        -3.4150   -2.0080   -3.4918 H         1 UNK         0.0000 
     58 H58        -1.7094   -1.8915   -3.6949 H         1 UNK         0.0000 
     59 H59        -3.4135   -0.2827   -1.6585 H         1 UNK         0.0000 
     60 H60        -2.8199    0.3104   -3.1534 H         1 UNK         0.0000 
     61 H61        -0.9941    0.2272   -4.4758 H         1 UNK         0.0000 
     62 H62         0.6679   -0.1792   -4.3431 H         1 UNK         0.0000 
     63 H63         1.2232    2.2371   -3.8167 H         1 UNK         0.0000 
     64 H64        -0.4888    2.6157   -3.9284 H         1 UNK         0.0000 
     65 H65         1.1422    1.4803   -6.2465 H         1 UNK         0.0000 
     66 H66        -0.4821    2.1485   -6.3319 H         1 UNK         0.0000 
     67 H67         1.2312    3.6929   -7.2142 H         1 UNK         0.0000 
     68 H68         2.1240    3.6768   -5.7426 H         1 UNK         0.0000 
     69 H69        -0.7089    4.7682   -6.0519 H         1 UNK         0.0000 
     70 H70         0.7023    5.7668   -6.1887 H         1 UNK         0.0000 
     71 H71        -0.7298    5.1544   -3.8805 H         1 UNK         0.0000 
     72 H72         1.1057    6.8734   -2.0262 H         1 UNK         0.0000 
     73 H73        -0.2422    5.7843   -1.8239 H         1 UNK         0.0000 
     74 H74         2.6924    5.0292   -1.0623 H         1 UNK         0.0000 
     75 H75         1.6254    5.8688    0.0184 H         1 UNK         0.0000 
     76 H76        -0.9817    5.7135    0.2347 H         1 UNK         0.0000 
     77 H77        -1.9440    4.5559    1.0806 H         1 UNK         0.0000 
     78 H78         0.5929    5.8912    2.1594 H         1 UNK         0.0000 
     79 H79        -0.3470    4.7056    3.0465 H         1 UNK         0.0000 
     80 H80        -1.4235    7.4203    2.1115 H         1 UNK         0.0000 
     81 H81        -2.2975    6.2536    3.0887 H         1 UNK         0.0000 
     82 H82         0.2940    7.7145    3.9526 H         1 UNK         0.0000 
     83 H83        -0.5921    6.5217    4.9577 H         1 UNK         0.0000 
@<TRIPOS>BOND
     1    1    4 nc   
     2    1    6 nc   
     3    1   18 nc   
     4    1   20 nc   
     5    1   32 nc   
     6    1   34 nc   
     7    2   44 1    
     8    2   43 1    
     9    2    3 1    
    10    2   45 1    
    11    3    5 am   BACKBONE|DICT|INTERRES
    12    3    4 2    
    13    5    7 1    
    14    5    6 1    
    15    7   46 1    
    16    7   47 1    
    17    7    8 1    
    18    8    9 1    
    19    8   48 1    
    20    8   49 1    
    21    9   50 1    
    22    9   51 1    
    23    9   10 1    
    24   10   52 1    
    25   10   11 1    
    26   10   53 1    
    27   11   55 1    
    28   11   12 1    
    29   11   54 1    
    30   12   13 am   BACKBONE|DICT|INTERRES
    31   12   56 1    
    32   13   14 2    
    33   13   15 1    
    34   15   16 1    
    35   15   57 1    
    36   15   58 1    
    37   16   17 1    
    38   16   59 1    
    39   16   60 1    
    40   17   19 am   BACKBONE|DICT|INTERRES
    41   17   18 2    
    42   19   20 1    
    43   19   21 1    
    44   21   22 1    
    45   21   61 1    
    46   21   62 1    
    47   22   64 1    
    48   22   63 1    
    49   22   23 1    
    50   23   24 1    
    51   23   65 1    
    52   23   66 1    
    53   24   25 1    
    54   24   68 1    
    55   24   67 1    
    56   25   26 1    
    57   25   69 1    
    58   25   70 1    
    59   26   71 1    
    60   26   27 am   BACKBONE|DICT|INTERRES
    61   27   29 1    
    62   27   28 2    
    63   29   73 1    
    64   29   30 1    
    65   29   72 1    
    66   30   31 1    
    67   30   75 1    
    68   30   74 1    
    69   31   32 2    
    70   31   33 am   BACKBONE|DICT|INTERRES
    71   33   34 1    
    72   33   35 1    
    73   35   77 1    
    74   35   36 1    
    75   35   76 1    
    76   36   37 1    
    77   36   79 1    
    78   36   78 1    
    79   37   81 1    
    80   37   38 1    
    81   37   80 1    
    82   38   39 1    
    83   38   83 1    
    84   38   82 1    
    85   39   40 1    
    86   39   41 1    
    87   39   42 1    
@<TRIPOS>SUBSTRUCTURE
     1 UNK         1 GROUP             0       ****    0 ROOT    
@<TRIPOS>MOLECULE
093_c1
80   84    1
SMALL
USER_CHARGES


@<TRIPOS>ATOM
      1 Fe1        -0.1460    0.0867   -0.0947 Fe        1 UNK         0.0000 
      2 O2         -1.4632   -0.3186    1.1238 O.co2     1 UNK         0.0000 
      3 C3         -1.3643   -1.0776    2.1013 C.2       1 UNK         0.0000 
      4 C4         -2.5223   -1.8991    2.6592 C.3       1 UNK         0.0000 
      5 N5         -0.0730   -1.2520    2.4550 N.am      1 UNK         0.0000 
      6 O6          0.8744   -0.6605    1.7258 O.co2     1 UNK         0.0000 
      7 C7          0.4009   -2.0508    3.5881 C.3       1 UNK         0.0000 
      8 C8          1.1680   -3.3298    3.1861 C.3       1 UNK         0.0000 
      9 C9          0.2876   -4.5830    2.9264 C.3       1 UNK         0.0000 
     10 C10         0.5769   -5.3463    1.6214 C.3       1 UNK         0.0000 
     11 N11        -0.1968   -4.8885    0.4605 N.am      1 UNK         0.0000 
     12 C12         0.2980   -4.8571   -0.7876 C.2       1 UNK         0.0000 
     13 O13         1.4797   -5.0743   -1.0390 O.2       1 UNK         0.0000 
     14 C14        -0.6890   -4.6570   -1.9547 C.3       1 UNK         0.0000 
     15 C15        -1.3636   -3.2729   -2.1717 C.3       1 UNK         0.0000 
     16 C16        -0.5365   -2.0307   -1.8347 C.2       1 UNK         0.0000 
     17 O17        -0.6872   -1.3953   -0.7928 O.co2     1 UNK         0.0000 
     18 N18         0.3770   -1.3998   -2.5954 N.am      1 UNK         0.0000 
     19 O19         0.9345   -0.3015   -2.0561 O.co2     1 UNK         0.0000 
     20 C20         0.7443   -1.7439   -3.9727 C.3       1 UNK         0.0000 
     21 C21         0.4894   -0.6040   -4.9823 C.3       1 UNK         0.0000 
     22 C22        -1.0017   -0.2176   -5.1736 C.3       1 UNK         0.0000 
     23 C23        -1.1955    1.1482   -5.8708 C.3       1 UNK         0.0000 
     24 N24        -1.6961    2.1967   -4.9725 N.am      1 UNK         0.0000 
     25 C25        -0.9494    2.8490   -4.0644 C.2       1 UNK         0.0000 
     26 O26         0.2541    2.6814   -3.9390 O.2       1 UNK         0.0000 
     27 C27        -1.6674    3.8646   -3.1590 C.3       1 UNK         0.0000 
     28 C28        -2.1494    3.3614   -1.7597 C.3       1 UNK         0.0000 
     29 C29        -1.1853    2.4826   -0.9446 C.2       1 UNK         0.0000 
     30 O30        -1.2210    1.2468   -0.9231 O.co2     1 UNK         0.0000 
     31 N31        -0.1790    2.9032   -0.1408 N.am      1 UNK         0.0000 
     32 O32         0.5639    1.9122    0.3916 O.co2     1 UNK         0.0000 
     33 C33        -0.0143    4.2639    0.3904 C.3       1 UNK         0.0000 
     34 C34         1.0859    5.1052   -0.2885 C.3       1 UNK         0.0000 
     35 C35         1.1866    6.5005    0.3702 C.3       1 UNK         0.0000 
     36 C36         2.2168    7.4261   -0.3072 C.3       1 UNK         0.0000 
     37 C37         2.4259    8.7625    0.4303 C.3       1 UNK         0.0000 
     38 N38         1.1164    9.5622    0.4626 N.4       1 UNK         0.0000 
     39 H39         0.3838    9.0202    0.8972 H         1 UNK         0.0000 
     40 H40         1.2439   10.4081    0.9983 H         1 UNK         0.0000 
     41 H41         0.8236    9.8240   -0.4690 H         1 UNK         0.0000 
     42 H42        -3.4516   -1.6862    2.1391 H         1 UNK         0.0000 
     43 H43        -2.3468   -2.9681    2.5290 H         1 UNK         0.0000 
     44 H44        -2.6778   -1.6942    3.7140 H         1 UNK         0.0000 
     45 H45        -0.4080   -2.2929    4.2750 H         1 UNK         0.0000 
     46 H46         1.0727   -1.4172    4.1721 H         1 UNK         0.0000 
     47 H47         1.8351   -3.1061    2.3489 H         1 UNK         0.0000 
     48 H48         1.8228   -3.5703    4.0284 H         1 UNK         0.0000 
     49 H49         0.5021   -5.2807    3.7387 H         1 UNK         0.0000 
     50 H50        -0.7792   -4.3793    3.0089 H         1 UNK         0.0000 
     51 H51         0.3551   -6.4075    1.7578 H         1 UNK         0.0000 
     52 H52         1.6547   -5.3238    1.4330 H         1 UNK         0.0000 
     53 H53        -1.1824   -4.7358    0.5891 H         1 UNK         0.0000 
     54 H54        -0.1306   -4.8895   -2.8641 H         1 UNK         0.0000 
     55 H55        -1.4397   -5.4438   -1.9343 H         1 UNK         0.0000 
     56 H56        -1.7803   -3.1998   -3.1768 H         1 UNK         0.0000 
     57 H57        -2.2602   -3.2489   -1.5517 H         1 UNK         0.0000 
     58 H58         0.2053   -2.6261   -4.3041 H         1 UNK         0.0000 
     59 H59         1.7903   -2.0363   -3.9917 H         1 UNK         0.0000 
     60 H60         1.0799    0.2672   -4.6786 H         1 UNK         0.0000 
     61 H61         0.9009   -0.8966   -5.9533 H         1 UNK         0.0000 
     62 H62        -1.5061   -0.9916   -5.7550 H         1 UNK         0.0000 
     63 H63        -1.5097   -0.2126   -4.2069 H         1 UNK         0.0000 
     64 H64        -0.2912    1.4593   -6.3970 H         1 UNK         0.0000 
     65 H65        -1.9399    1.0410   -6.6610 H         1 UNK         0.0000 
     66 H66        -2.6666    2.4492   -5.0567 H         1 UNK         0.0000 
     67 H67        -2.5181    4.2906   -3.7004 H         1 UNK         0.0000 
     68 H68        -1.0103    4.7242   -3.0473 H         1 UNK         0.0000 
     69 H69        -3.0754    2.8076   -1.9158 H         1 UNK         0.0000 
     70 H70        -2.4819    4.2017   -1.1569 H         1 UNK         0.0000 
     71 H71         0.1871    4.1983    1.4649 H         1 UNK         0.0000 
     72 H72        -0.9548    4.8103    0.3315 H         1 UNK         0.0000 
     73 H73         0.8656    5.2138   -1.3529 H         1 UNK         0.0000 
     74 H74         2.0448    4.5844   -0.2143 H         1 UNK         0.0000 
     75 H75         1.4495    6.3653    1.4210 H         1 UNK         0.0000 
     76 H76         0.1994    6.9661    0.3658 H         1 UNK         0.0000 
     77 H77         3.1751    6.9053   -0.3597 H         1 UNK         0.0000 
     78 H78         1.9364    7.6042   -1.3472 H         1 UNK         0.0000 
     79 H79         3.1537    9.4176   -0.0559 H         1 UNK         0.0000 
     80 H80         2.7032    8.6202    1.4766 H         1 UNK         0.0000 
@<TRIPOS>BOND
     1    1    2 nc   
     2    1    6 nc   
     3    1   17 nc   
     4    1   19 nc   
     5    1   30 nc   
     6    1   32 nc   
     7    2    3 2    
     8    3    4 1    
     9    3    5 am   BACKBONE|DICT|INTERRES
    10    4   44 1    
    11    4   42 1    
    12    4   43 1    
    13    5    7 1    
    14    5    6 1    
    15    7   46 1    
    16    7   45 1    
    17    7    8 1    
    18    8   48 1    
    19    8    9 1    
    20    8   47 1    
    21    9   50 1    
    22    9   49 1    
    23    9   10 1    
    24   10   51 1    
    25   10   11 1    
    26   10   52 1    
    27   11   53 1    
    28   11   12 am   BACKBONE|DICT|INTERRES
    29   12   13 2    
    30   12   14 1    
    31   14   15 1    
    32   14   54 1    
    33   14   55 1    
    34   15   16 1    
    35   15   57 1    
    36   15   56 1    
    37   16   17 2    
    38   16   18 am   BACKBONE|DICT|INTERRES
    39   18   19 1    
    40   18   20 1    
    41   20   59 1    
    42   20   21 1    
    43   20   58 1    
    44   21   60 1    
    45   21   22 1    
    46   21   61 1    
    47   22   63 1    
    48   22   23 1    
    49   22   62 1    
    50   23   24 1    
    51   23   64 1    
    52   23   65 1    
    53   24   25 am   BACKBONE|DICT|INTERRES
    54   24   66 1    
    55   25   26 2    
    56   25   27 1    
    57   27   68 1    
    58   27   28 1    
    59   27   67 1    
    60   28   70 1    
    61   28   29 1    
    62   28   69 1    
    63   29   30 2    
    64   29   31 am   BACKBONE|DICT|INTERRES
    65   31   32 1    
    66   31   33 1    
    67   33   71 1    
    68   33   34 1    
    69   33   72 1    
    70   34   74 1    
    71   34   35 1    
    72   34   73 1    
    73   35   75 1    
    74   35   36 1    
    75   35   76 1    
    76   36   77 1    
    77   36   37 1    
    78   36   78 1    
    79   37   38 1    
    80   37   80 1    
    81   37   79 1    
    82   38   40 1    
    83   38   39 1    
    84   38   41 1    
@<TRIPOS>SUBSTRUCTURE
     1 UNK         1 GROUP             0       ****    0 ROOT    
@<TRIPOS>MOLECULE
094_c1
86   90    1
SMALL
USER_CHARGES


@<TRIPOS>ATOM
      1 Fe1         0.0258    0.6163   -0.2227 Fe        1 UNK         0.0000 
      2 O2         -1.5255    0.6560    1.0803 O.co2     1 UNK         0.0000 
      3 C3         -1.4213    0.0240    2.1416 C.2       1 UNK         0.0000 
      4 C4         -2.6911   -0.5055    2.8044 C.3       1 UNK         0.0000 
      5 N5         -0.1726   -0.2925    2.5821 N.am      1 UNK         0.0000 
      6 O6          0.9520   -0.0652    1.8894 O.co2     1 UNK         0.0000 
      7 C7          0.0812   -0.9798    3.8607 C.3       1 UNK         0.0000 
      8 C8         -0.0541   -2.5124    3.7777 C.3       1 UNK         0.0000 
      9 C9          0.6129   -3.1853    2.5589 C.3       1 UNK         0.0000 
     10 C10         0.2351   -4.6723    2.4774 C.3       1 UNK         0.0000 
     11 C11         0.7638   -5.4326    1.2433 C.3       1 UNK         0.0000 
     12 N12         0.4007   -4.8845   -0.0696 N.am      1 UNK         0.0000 
     13 C13        -0.8366   -4.6991   -0.5437 C.2       1 UNK         0.0000 
     14 O14        -1.8499   -4.8746    0.1262 O.2       1 UNK         0.0000 
     15 C15        -0.9556   -4.2775   -2.0123 C.3       1 UNK         0.0000 
     16 C16        -1.5444   -2.8656   -2.2467 C.3       1 UNK         0.0000 
     17 C17        -0.6143   -1.7163   -1.8074 C.2       1 UNK         0.0000 
     18 O18        -0.8098   -1.1412   -0.7334 O.co2     1 UNK         0.0000 
     19 N19         0.4035   -1.2611   -2.5809 N.am      1 UNK         0.0000 
     20 O20         1.1914   -0.2356   -2.2184 O.co2     1 UNK         0.0000 
     21 C21         0.6120   -1.6947   -3.9798 C.3       1 UNK         0.0000 
     22 C22        -0.2330   -0.8484   -4.9546 C.3       1 UNK         0.0000 
     23 C23         0.3562   -0.7183   -6.3662 C.3       1 UNK         0.0000 
     24 C24        -0.5384    0.0876   -7.3405 C.3       1 UNK         0.0000 
     25 C25        -1.0581    1.4572   -6.8367 C.3       1 UNK         0.0000 
     26 N26        -0.0212    2.2742   -6.1916 N.am      1 UNK         0.0000 
     27 C27        -0.0939    2.9780   -5.0583 C.2       1 UNK         0.0000 
     28 O28         0.8815    3.6248   -4.6885 O.2       1 UNK         0.0000 
     29 C29        -1.3961    3.0137   -4.2381 C.3       1 UNK         0.0000 
     30 C30        -1.2908    3.7310   -2.8669 C.3       1 UNK         0.0000 
     31 C31        -0.6357    2.8694   -1.7689 C.2       1 UNK         0.0000 
     32 O32        -1.0660    1.7275   -1.5480 O.co2     1 UNK         0.0000 
     33 N33         0.3643    3.3200   -0.9657 N.am      1 UNK         0.0000 
     34 O34         0.8270    2.6291    0.0785 O.co2     1 UNK         0.0000 
     35 C35         1.0329    4.6212   -1.1115 C.3       1 UNK         0.0000 
     36 C36         0.4705    5.6200   -0.0852 C.3       1 UNK         0.0000 
     37 C37         1.2606    6.9308   -0.0064 C.3       1 UNK         0.0000 
     38 C38         0.6359    7.9615    0.9548 C.3       1 UNK         0.0000 
     39 C39        -0.7559    8.4499    0.5072 C.3       1 UNK         0.0000 
     40 N40        -1.2669    9.5357    1.4634 N.4       1 UNK         0.0000 
     41 H41        -1.3581    9.1668    2.4003 H         1 UNK         0.0000 
     42 H42        -2.1710    9.8798    1.1662 H         1 UNK         0.0000 
     43 H43        -0.6280   10.3188    1.4856 H         1 UNK         0.0000 
     44 H44        -2.5720   -0.8015    3.8396 H         1 UNK         0.0000 
     45 H45        -3.0289   -1.3830    2.2507 H         1 UNK         0.0000 
     46 H46        -3.4944    0.2282    2.7601 H         1 UNK         0.0000 
     47 H47        -0.5614   -0.5789    4.6468 H         1 UNK         0.0000 
     48 H48         1.0894   -0.7338    4.2005 H         1 UNK         0.0000 
     49 H49         0.3411   -2.9392    4.6993 H         1 UNK         0.0000 
     50 H50        -1.1179   -2.7468    3.7671 H         1 UNK         0.0000 
     51 H51         1.6978   -3.0581    2.6026 H         1 UNK         0.0000 
     52 H52         0.2941   -2.7013    1.6325 H         1 UNK         0.0000 
     53 H53        -0.8515   -4.7674    2.5126 H         1 UNK         0.0000 
     54 H54         0.5962   -5.1738    3.3770 H         1 UNK         0.0000 
     55 H55         1.8549   -5.4241    1.2785 H         1 UNK         0.0000 
     56 H56         0.4535   -6.4779    1.2972 H         1 UNK         0.0000 
     57 H57         1.1697   -4.6382   -0.6719 H         1 UNK         0.0000 
     58 H58        -0.0435   -4.4377   -2.5844 H         1 UNK         0.0000 
     59 H59        -1.6550   -4.9949   -2.4433 H         1 UNK         0.0000 
     60 H60        -2.5310   -2.7830   -1.7874 H         1 UNK         0.0000 
     61 H61        -1.7647   -2.7478   -3.3096 H         1 UNK         0.0000 
     62 H62         0.4266   -2.7578   -4.1538 H         1 UNK         0.0000 
     63 H63         1.6709   -1.5757   -4.2277 H         1 UNK         0.0000 
     64 H64        -1.2432   -1.2490   -5.0132 H         1 UNK         0.0000 
     65 H65        -0.3402    0.1468   -4.5359 H         1 UNK         0.0000 
     66 H66         0.5322   -1.7117   -6.7813 H         1 UNK         0.0000 
     67 H67         1.3377   -0.2417   -6.3020 H         1 UNK         0.0000 
     68 H68        -1.4026   -0.5259   -7.6071 H         1 UNK         0.0000 
     69 H69         0.0071    0.2352   -8.2773 H         1 UNK         0.0000 
     70 H70        -1.8919    1.2698   -6.1581 H         1 UNK         0.0000 
     71 H71        -1.4615    2.0291   -7.6752 H         1 UNK         0.0000 
     72 H72         0.8748    2.3340   -6.6521 H         1 UNK         0.0000 
     73 H73        -2.0937    3.5801   -4.8520 H         1 UNK         0.0000 
     74 H74        -1.8572    2.0355   -4.1186 H         1 UNK         0.0000 
     75 H75        -0.9308    4.7533   -2.9622 H         1 UNK         0.0000 
     76 H76        -2.3066    3.8752   -2.4975 H         1 UNK         0.0000 
     77 H77         2.1088    4.4972   -0.9493 H         1 UNK         0.0000 
     78 H78         1.0014    5.0351   -2.1233 H         1 UNK         0.0000 
     79 H79         0.4607    5.1586    0.9018 H         1 UNK         0.0000 
     80 H80        -0.5673    5.8014   -0.3517 H         1 UNK         0.0000 
     81 H81         1.3701    7.3545   -1.0054 H         1 UNK         0.0000 
     82 H82         2.2729    6.6942    0.3320 H         1 UNK         0.0000 
     83 H83         1.3225    8.8080    1.0338 H         1 UNK         0.0000 
     84 H84         0.5793    7.5200    1.9533 H         1 UNK         0.0000 
     85 H85        -1.5150    7.6657    0.5343 H         1 UNK         0.0000 
     86 H86        -0.7369    8.9118   -0.4818 H         1 UNK         0.0000 
@<TRIPOS>BOND
     1    1    2 nc   
     2    1    6 nc   
     3    1   18 nc   
     4    1   20 nc   
     5    1   32 nc   
     6    1   34 nc   
     7    2    3 2    
     8    3    4 1    
     9    3    5 am   BACKBONE|DICT|INTERRES
    10    4   44 1    
    11    4   45 1    
    12    4   46 1    
    13    5    7 1    
    14    5    6 1    
    15    7    8 1    
    16    7   48 1    
    17    7   47 1    
    18    8   49 1    
    19    8    9 1    
    20    8   50 1    
    21    9   51 1    
    22    9   10 1    
    23    9   52 1    
    24   10   54 1    
    25   10   11 1    
    26   10   53 1    
    27   11   56 1    
    28   11   55 1    
    29   11   12 1    
    30   12   13 am   BACKBONE|DICT|INTERRES
    31   12   57 1    
    32   13   14 2    
    33   13   15 1    
    34   15   16 1    
    35   15   58 1    
    36   15   59 1    
    37   16   17 1    
    38   16   60 1    
    39   16   61 1    
    40   17   19 am   BACKBONE|DICT|INTERRES
    41   17   18 2    
    42   19   20 1    
    43   19   21 1    
    44   21   22 1    
    45   21   62 1    
    46   21   63 1    
    47   22   64 1    
    48   22   65 1    
    49   22   23 1    
    50   23   67 1    
    51   23   24 1    
    52   23   66 1    
    53   24   25 1    
    54   24   68 1    
    55   24   69 1    
    56   25   26 1    
    57   25   70 1    
    58   25   71 1    
    59   26   27 am   BACKBONE|DICT|INTERRES
    60   26   72 1    
    61   27   28 2    
    62   27   29 1    
    63   29   74 1    
    64   29   30 1    
    65   29   73 1    
    66   30   76 1    
    67   30   31 1    
    68   30   75 1    
    69   31   32 2    
    70   31   33 am   BACKBONE|DICT|INTERRES
    71   33   35 1    
    72   33   34 1    
    73   35   77 1    
    74   35   36 1    
    75   35   78 1    
    76   36   37 1    
    77   36   79 1    
    78   36   80 1    
    79   37   82 1    
    80   37   38 1    
    81   37   81 1    
    82   38   83 1    
    83   38   84 1    
    84   38   39 1    
    85   39   40 1    
    86   39   85 1    
    87   39   86 1    
    88   40   43 1    
    89   40   41 1    
    90   40   42 1    
@<TRIPOS>SUBSTRUCTURE
     1 UNK         1 GROUP             0       ****    0 ROOT    
@<TRIPOS>MOLECULE
096_c1
85   90    1
SMALL
USER_CHARGES


@<TRIPOS>ATOM
      1 Fe1        -0.3194   -0.1178   -0.0327 Fe        1 UNK         0.0000 
      2 O2         -1.1088   -1.2138    1.6324 O.co2     1 UNK         0.0000 
      3 N3         -0.1076   -1.5137    2.4417 N.am      1 UNK         0.0000 
      4 C4         -0.3416   -2.7605    3.1718 C.3       1 UNK         0.0000 
      5 C5          0.0527   -3.9643    2.2857 C.3       1 UNK         0.0000 
      6 C6         -0.3499   -5.3275    2.8462 C.3       1 UNK         0.0000 
      7 C7          0.1040   -6.4972    1.9407 C.3       1 UNK         0.0000 
      8 C8         -0.7135   -6.7072    0.6430 C.3       1 UNK         0.0000 
      9 N9         -0.3695   -5.8263   -0.4859 N.am      1 UNK         0.0000 
     10 C10        -1.2477   -5.1127   -1.2084 C.2       1 UNK         0.0000 
     11 O11        -2.4329   -5.0027   -0.9111 O.2       1 UNK         0.0000 
     12 C12        -0.7327   -4.5037   -2.5240 C.3       1 UNK         0.0000 
     13 C13        -1.2787   -3.1012   -2.9029 C.3       1 UNK         0.0000 
     14 C14        -0.6177   -1.9665   -2.1239 C.2       1 UNK         0.0000 
     15 O15        -1.0234   -1.6075   -1.0179 O.co2     1 UNK         0.0000 
     16 N16         0.3897   -1.2210   -2.6026 N.am      1 UNK         0.0000 
     17 O17         0.8654   -0.2740   -1.8193 O.co2     1 UNK         0.0000 
     18 C18         0.9431   -1.2207   -3.9627 C.3       1 UNK         0.0000 
     19 C19         0.2212   -0.2488   -4.9409 C.3       1 UNK         0.0000 
     20 C20         0.8543    1.1531   -5.1790 C.3       1 UNK         0.0000 
     21 C21         0.3438    2.3437   -4.3345 C.3       1 UNK         0.0000 
     22 N22         1.0935    2.6271   -3.0991 N.am      1 UNK         0.0000 
     23 C23         1.0753    3.8385   -2.4948 C.2       1 UNK         0.0000 
     24 O24         0.5434    4.8205   -3.0048 O.2       1 UNK         0.0000 
     25 C25         1.6771    3.9818   -1.0803 C.3       1 UNK         0.0000 
     26 C26         0.6026    3.9950    0.0703 C.3       1 UNK         0.0000 
     27 C27        -0.1265    2.6578    0.1569 C.2       1 UNK         0.0000 
     28 O28         0.4317    1.6578   -0.2565 O.co2     1 UNK         0.0000 
     29 N29        -1.3406    2.3839    0.6391 N.am      1 UNK         0.0000 
     30 O30        -1.8513    1.1870    0.3676 O.co2     1 UNK         0.0000 
     31 C31        -1.8630    3.0104    1.8720 C.3       1 UNK         0.0000 
     32 C32        -0.9442    2.8011    3.1038 C.3       1 UNK         0.0000 
     33 C33        -1.5833    3.2557    4.4311 C.3       1 UNK         0.0000 
     34 C34        -0.5863    3.5102    5.5909 C.3       1 UNK         0.0000 
     35 C35         0.1159    2.2709    6.1907 C.3       1 UNK         0.0000 
     36 N36         1.1746    1.7215    5.3326 N.am      1 UNK         0.0000 
     37 C37         1.3710    0.4178    5.0854 C.2       1 UNK         0.0000 
     38 O38         0.7178   -0.4726    5.6193 O.2       1 UNK         0.0000 
     39 C39         2.4946    0.0712    4.0984 C.3       1 UNK         0.0000 
     40 C40         2.2650   -1.2063    3.2428 C.3       1 UNK         0.0000 
     41 C41         1.1415   -1.0709    2.2128 C.2       1 UNK         0.0000 
     42 O42         1.3502   -0.5567    1.1150 O.co2     1 UNK         0.0000 
     43 H43        -1.3990   -2.8404    3.4441 H         1 UNK         0.0000 
     44 H44         0.1573   -2.7811    4.1384 H         1 UNK         0.0000 
     45 H45        -0.4026   -3.8377    1.3023 H         1 UNK         0.0000 
     46 H46         1.1337   -3.9622    2.1295 H         1 UNK         0.0000 
     47 H47         0.0904   -5.4441    3.8410 H         1 UNK         0.0000 
     48 H48        -1.4326   -5.3568    2.9954 H         1 UNK         0.0000 
     49 H49         0.0258   -7.4134    2.5321 H         1 UNK         0.0000 
     50 H50         1.1685   -6.4067    1.7200 H         1 UNK         0.0000 
     51 H51        -0.6133   -7.7420    0.3078 H         1 UNK         0.0000 
     52 H52        -1.7687   -6.6145    0.9008 H         1 UNK         0.0000 
     53 H53         0.5872   -5.8197   -0.7938 H         1 UNK         0.0000 
     54 H54         0.3445   -4.5943   -2.6728 H         1 UNK         0.0000 
     55 H55        -1.1483   -5.1913   -3.2628 H         1 UNK         0.0000 
     56 H56        -1.0954   -2.9071   -3.9593 H         1 UNK         0.0000 
     57 H57        -2.3640   -3.0406   -2.8199 H         1 UNK         0.0000 
     58 H58         0.8833   -2.2260   -4.3830 H         1 UNK         0.0000 
     59 H59         2.0221   -1.0240   -3.9517 H         1 UNK         0.0000 
     60 H60         0.2429   -0.7447   -5.9165 H         1 UNK         0.0000 
     61 H61        -0.8434   -0.1721   -4.7051 H         1 UNK         0.0000 
     62 H62         1.9428    1.1071   -5.1701 H         1 UNK         0.0000 
     63 H63         0.6102    1.4147   -6.2097 H         1 UNK         0.0000 
     64 H64        -0.7059    2.1969   -4.0678 H         1 UNK         0.0000 
     65 H65         0.3331    3.2314   -4.9761 H         1 UNK         0.0000 
     66 H66         1.4115    1.8100   -2.5848 H         1 UNK         0.0000 
     67 H67         2.2273    4.9240   -1.0768 H         1 UNK         0.0000 
     68 H68         2.4770    3.2589   -0.9014 H         1 UNK         0.0000 
     69 H69        -0.0668    4.8560    0.0207 H         1 UNK         0.0000 
     70 H70         1.1357    4.1072    1.0140 H         1 UNK         0.0000 
     71 H71        -2.8415    2.5811    2.1147 H         1 UNK         0.0000 
     72 H72        -2.0698    4.0599    1.6946 H         1 UNK         0.0000 
     73 H73        -0.0192    3.3616    2.9612 H         1 UNK         0.0000 
     74 H74        -0.6652    1.7486    3.1968 H         1 UNK         0.0000 
     75 H75        -2.1334    4.1814    4.2565 H         1 UNK         0.0000 
     76 H76        -2.3408    2.5332    4.7392 H         1 UNK         0.0000 
     77 H77         0.1600    4.2409    5.2819 H         1 UNK         0.0000 
     78 H78        -1.1296    3.9983    6.4038 H         1 UNK         0.0000 
     79 H79        -0.6504    1.5172    6.3782 H         1 UNK         0.0000 
     80 H80         0.5227    2.4912    7.1820 H         1 UNK         0.0000 
     81 H81         1.8699    2.3670    4.9959 H         1 UNK         0.0000 
     82 H82         2.8245    0.9178    3.4926 H         1 UNK         0.0000 
     83 H83         3.3558   -0.1270    4.7351 H         1 UNK         0.0000 
     84 H84         3.1720   -1.3995    2.6743 H         1 UNK         0.0000 
     85 H85         2.1958   -2.1007    3.8535 H         1 UNK         0.0000 
@<TRIPOS>BOND
     1    1    2 nc   
     2    1   15 nc   
     3    1   17 nc   
     4    1   28 nc   
     5    1   30 nc   
     6    1   42 nc   
     7    2    3 1    
     8    3    4 1    
     9    3   41 am   BACKBONE|DICT|INTERRES
    10    4   43 1    
    11    4   44 1    
    12    4    5 1    
    13    5    6 1    
    14    5   45 1    
    15    5   46 1    
    16    6   48 1    
    17    6   47 1    
    18    6    7 1    
    19    7   49 1    
    20    7    8 1    
    21    7   50 1    
    22    8   52 1    
    23    8    9 1    
    24    8   51 1    
    25    9   10 am   BACKBONE|DICT|INTERRES
    26    9   53 1    
    27   10   11 2    
    28   10   12 1    
    29   12   13 1    
    30   12   54 1    
    31   12   55 1    
    32   13   57 1    
    33   13   14 1    
    34   13   56 1    
    35   14   15 2    
    36   14   16 am   BACKBONE|DICT|INTERRES
    37   16   17 1    
    38   16   18 1    
    39   18   19 1    
    40   18   58 1    
    41   18   59 1    
    42   19   61 1    
    43   19   20 1    
    44   19   60 1    
    45   20   21 1    
    46   20   62 1    
    47   20   63 1    
    48   21   64 1    
    49   21   22 1    
    50   21   65 1    
    51   22   66 1    
    52   22   23 am   BACKBONE|DICT|INTERRES
    53   23   25 1    
    54   23   24 2    
    55   25   67 1    
    56   25   68 1    
    57   25   26 1    
    58   26   70 1    
    59   26   27 1    
    60   26   69 1    
    61   27   29 am   BACKBONE|DICT|INTERRES
    62   27   28 2    
    63   29   31 1    
    64   29   30 1    
    65   31   71 1    
    66   31   32 1    
    67   31   72 1    
    68   32   74 1    
    69   32   33 1    
    70   32   73 1    
    71   33   76 1    
    72   33   34 1    
    73   33   75 1    
    74   34   35 1    
    75   34   78 1    
    76   34   77 1    
    77   35   79 1    
    78   35   80 1    
    79   35   36 1    
    80   36   37 am   BACKBONE|DICT|INTERRES
    81   36   81 1    
    82   37   38 2    
    83   37   39 1    
    84   39   83 1    
    85   39   40 1    
    86   39   82 1    
    87   40   85 1    
    88   40   41 1    
    89   40   84 1    
    90   41   42 2    
@<TRIPOS>SUBSTRUCTURE
     1 UNK         1 GROUP             0       ****    0 ROOT    
@<TRIPOS>MOLECULE
097_c1
88   93    1
SMALL
USER_CHARGES


@<TRIPOS>ATOM
      1 Fe1        -0.4759   -0.0429    0.0017 Fe        1 UNK         0.0000 
      2 O2         -1.3728    1.1874   -1.7077 O.co2     1 UNK         0.0000 
      3 N3         -0.3468    1.6390   -2.4409 N.am      1 UNK         0.0000 
      4 C4         -0.6469    2.8888   -3.1664 C.3       1 UNK         0.0000 
      5 C5         -0.1361    4.1298   -2.3909 C.3       1 UNK         0.0000 
      6 C6         -1.1032    5.3267   -2.3923 C.3       1 UNK         0.0000 
      7 C7         -0.5206    6.6062   -1.7507 C.3       1 UNK         0.0000 
      8 C8         -0.2089    6.5531   -0.2368 C.3       1 UNK         0.0000 
      9 N9         -1.4018    6.4580    0.6197 N.am      1 UNK         0.0000 
     10 C10        -1.6918    5.5396    1.5517 C.2       1 UNK         0.0000 
     11 O11        -2.6665    5.7051    2.2715 O.2       1 UNK         0.0000 
     12 C12        -0.8044    4.2993    1.6923 C.3       1 UNK         0.0000 
     13 C13        -1.2439    3.2121    2.7265 C.3       1 UNK         0.0000 
     14 C14        -0.8530    1.8361    2.1767 C.2       1 UNK         0.0000 
     15 O15        -1.4786    1.3814    1.2141 O.co2     1 UNK         0.0000 
     16 N16         0.2987    1.2193    2.5410 N.am      1 UNK         0.0000 
     17 O17         0.9758    0.4086    1.7217 O.co2     1 UNK         0.0000 
     18 C18         0.5944    0.9157    3.9567 C.3       1 UNK         0.0000 
     19 C19         0.1792   -0.5343    4.3592 C.3       1 UNK         0.0000 
     20 C20         1.2538   -1.3130    5.1439 C.3       1 UNK         0.0000 
     21 C21         0.8682   -2.7657    5.5177 C.3       1 UNK         0.0000 
     22 C22         0.2903   -3.6764    4.4062 C.3       1 UNK         0.0000 
     23 N23         1.0597   -3.7188    3.1528 N.am      1 UNK         0.0000 
     24 C24         0.7968   -4.5966    2.1684 C.2       1 UNK         0.0000 
     25 O25        -0.0619   -5.4684    2.2742 O.2       1 UNK         0.0000 
     26 C26         1.5664   -4.4759    0.8428 C.3       1 UNK         0.0000 
     27 C27         0.6467   -4.2414   -0.4012 C.3       1 UNK         0.0000 
     28 C28        -0.0142   -2.8616   -0.3422 C.2       1 UNK         0.0000 
     29 O29         0.6396   -1.9102    0.0808 O.co2     1 UNK         0.0000 
     30 N30        -1.3173   -2.6451   -0.6497 N.am      1 UNK         0.0000 
     31 O31        -2.0230   -1.6410   -0.1175 O.co2     1 UNK         0.0000 
     32 C32        -1.9030   -3.1628   -1.9047 C.3       1 UNK         0.0000 
     33 C33        -2.2667   -2.0385   -2.9241 C.3       1 UNK         0.0000 
     34 C34        -2.6195   -2.5240   -4.3405 C.3       1 UNK         0.0000 
     35 C35        -1.4090   -2.9057   -5.2232 C.3       1 UNK         0.0000 
     36 C36        -0.5771   -1.7180   -5.7628 C.3       1 UNK         0.0000 
     37 N37         0.5070   -1.2651   -4.8839 N.am      1 UNK         0.0000 
     38 C38         1.2877   -0.2125   -5.1852 C.2       1 UNK         0.0000 
     39 O39         1.1440    0.4445   -6.2083 O.2       1 UNK         0.0000 
     40 C40         2.3795    0.1914   -4.1865 C.3       1 UNK         0.0000 
     41 C41         2.0211    1.4657   -3.3734 C.3       1 UNK         0.0000 
     42 C42         0.9218    1.1561   -2.3424 C.2       1 UNK         0.0000 
     43 O43         1.1909    0.3806   -1.4231 O.co2     1 UNK         0.0000 
     44 H44        -1.7306    2.9688   -3.2837 H         1 UNK         0.0000 
     45 H45        -0.2822    2.8808   -4.1987 H         1 UNK         0.0000 
     46 H46         0.8333    4.4142   -2.7980 H         1 UNK         0.0000 
     47 H47         0.0585    3.8545   -1.3601 H         1 UNK         0.0000 
     48 H48        -2.0325    5.0515   -1.8872 H         1 UNK         0.0000 
     49 H49        -1.3773    5.5509   -3.4233 H         1 UNK         0.0000 
     50 H50         0.4027    6.8580   -2.2771 H         1 UNK         0.0000 
     51 H51        -1.1963    7.4431   -1.9447 H         1 UNK         0.0000 
     52 H52         0.4750    5.7231   -0.0568 H         1 UNK         0.0000 
     53 H53         0.3541    7.4433    0.0502 H         1 UNK         0.0000 
     54 H54        -2.0445    7.2360    0.6054 H         1 UNK         0.0000 
     55 H55        -0.7747    3.8839    0.6868 H         1 UNK         0.0000 
     56 H56         0.2081    4.6230    1.9312 H         1 UNK         0.0000 
     57 H57        -2.3288    3.2009    2.8540 H         1 UNK         0.0000 
     58 H58        -0.8149    3.4075    3.7091 H         1 UNK         0.0000 
     59 H59         0.1287    1.6186    4.6502 H         1 UNK         0.0000 
     60 H60         1.6707    1.0578    4.0926 H         1 UNK         0.0000 
     61 H61        -0.0500   -1.1177    3.4707 H         1 UNK         0.0000 
     62 H62        -0.7581   -0.5037    4.9125 H         1 UNK         0.0000 
     63 H63         1.4863   -0.7707    6.0616 H         1 UNK         0.0000 
     64 H64         2.1809   -1.3331    4.5689 H         1 UNK         0.0000 
     65 H65         1.7376   -3.2592    5.9607 H         1 UNK         0.0000 
     66 H66         0.1308   -2.7309    6.3227 H         1 UNK         0.0000 
     67 H67         0.1745   -4.6890    4.8033 H         1 UNK         0.0000 
     68 H68        -0.7110   -3.3236    4.1476 H         1 UNK         0.0000 
     69 H69         1.7586   -3.0042    3.0137 H         1 UNK         0.0000 
     70 H70         2.0866   -5.4201    0.7091 H         1 UNK         0.0000 
     71 H71         2.3703   -3.7448    0.8875 H         1 UNK         0.0000 
     72 H72         1.2611   -4.2557   -1.3029 H         1 UNK         0.0000 
     73 H73        -0.0654   -5.0579   -0.5437 H         1 UNK         0.0000 
     74 H74        -1.2522   -3.8880   -2.4015 H         1 UNK         0.0000 
     75 H75        -2.8037   -3.7359   -1.6664 H         1 UNK         0.0000 
     76 H76        -3.1325   -1.4981   -2.5380 H         1 UNK         0.0000 
     77 H77        -1.4721   -1.2984   -2.9895 H         1 UNK         0.0000 
     78 H78        -3.1904   -1.7462   -4.8533 H         1 UNK         0.0000 
     79 H79        -3.3041   -3.3699   -4.2686 H         1 UNK         0.0000 
     80 H80        -0.7688   -3.6300   -4.7195 H         1 UNK         0.0000 
     81 H81        -1.8062   -3.4365   -6.0919 H         1 UNK         0.0000 
     82 H82        -1.2444   -0.8781   -5.9785 H         1 UNK         0.0000 
     83 H83        -0.1518   -1.9918   -6.7312 H         1 UNK         0.0000 
     84 H84         0.6513   -1.7638   -4.0243 H         1 UNK         0.0000 
     85 H85         3.2665    0.4031   -4.7825 H         1 UNK         0.0000 
     86 H86         2.6977   -0.6236   -3.5398 H         1 UNK         0.0000 
     87 H87         1.8475    2.3240   -4.0208 H         1 UNK         0.0000 
     88 H88         2.9041    1.7652   -2.8029 H         1 UNK         0.0000 
@<TRIPOS>BOND
     1    1    2 nc   
     2    1   15 nc   
     3    1   17 nc   
     4    1   29 nc   
     5    1   31 nc   
     6    1   43 nc   
     7    2    3 1    
     8    3   42 am   BACKBONE|DICT|INTERRES
     9    3    4 1    
    10    4   44 1    
    11    4    5 1    
    12    4   45 1    
    13    5   47 1    
    14    5    6 1    
    15    5   46 1    
    16    6   48 1    
    17    6    7 1    
    18    6   49 1    
    19    7    8 1    
    20    7   50 1    
    21    7   51 1    
    22    8   52 1    
    23    8   53 1    
    24    8    9 1    
    25    9   10 am   BACKBONE|DICT|INTERRES
    26    9   54 1    
    27   10   12 1    
    28   10   11 2    
    29   12   56 1    
    30   12   13 1    
    31   12   55 1    
    32   13   58 1    
    33   13   14 1    
    34   13   57 1    
    35   14   15 2    
    36   14   16 am   BACKBONE|DICT|INTERRES
    37   16   18 1    
    38   16   17 1    
    39   18   60 1    
    40   18   19 1    
    41   18   59 1    
    42   19   62 1    
    43   19   20 1    
    44   19   61 1    
    45   20   21 1    
    46   20   63 1    
    47   20   64 1    
    48   21   65 1    
    49   21   66 1    
    50   21   22 1    
    51   22   67 1    
    52   22   23 1    
    53   22   68 1    
    54   23   24 am   BACKBONE|DICT|INTERRES
    55   23   69 1    
    56   24   25 2    
    57   24   26 1    
    58   26   71 1    
    59   26   27 1    
    60   26   70 1    
    61   27   28 1    
    62   27   72 1    
    63   27   73 1    
    64   28   29 2    
    65   28   30 am   BACKBONE|DICT|INTERRES
    66   30   31 1    
    67   30   32 1    
    68   32   75 1    
    69   32   33 1    
    70   32   74 1    
    71   33   76 1    
    72   33   34 1    
    73   33   77 1    
    74   34   79 1    
    75   34   35 1    
    76   34   78 1    
    77   35   80 1    
    78   35   36 1    
    79   35   81 1    
    80   36   37 1    
    81   36   82 1    
    82   36   83 1    
    83   37   84 1    
    84   37   38 am   BACKBONE|DICT|INTERRES
    85   38   40 1    
    86   38   39 2    
    87   40   86 1    
    88   40   41 1    
    89   40   85 1    
    90   41   88 1    
    91   41   42 1    
    92   41   87 1    
    93   42   43 2    
@<TRIPOS>SUBSTRUCTURE
     1 UNK         1 GROUP             0       ****    0 ROOT    
@<TRIPOS>MOLECULE
098_c1
92   96    1
SMALL
USER_CHARGES


@<TRIPOS>ATOM
      1 Fe1        -0.0875    0.4348   -0.1571 Fe        1 UNK         0.0000 
      2 O2         -2.6435   -3.9852    3.1910 O.3       1 UNK         0.0000 
      3 C3         -3.2173   -3.3496    2.1444 C.2       1 UNK         0.0000 
      4 O4         -3.5996   -3.9443    1.1446 O.2       1 UNK         0.0000 
      5 C5         -3.4087   -1.8399    2.3680 C.3       1 UNK         0.0000 
      6 C6         -2.2816   -1.0805    3.1410 C.3       1 UNK         0.0000 
      7 C7         -1.1333   -0.5603    2.2571 C.2       1 UNK         0.0000 
      8 O8         -1.3171    0.0312    1.1892 O.co2     1 UNK         0.0000 
      9 N9          0.1847   -0.7028    2.5179 N.am      1 UNK         0.0000 
     10 O10         1.0464   -0.2178    1.6142 O.co2     1 UNK         0.0000 
     11 C11         0.7648   -1.4411    3.6469 C.3       1 UNK         0.0000 
     12 C12         0.9064   -2.9574    3.3887 C.3       1 UNK         0.0000 
     13 C13         1.8864   -3.3475    2.2575 C.3       1 UNK         0.0000 
     14 C14         1.9733   -4.8727    1.9862 C.3       1 UNK         0.0000 
     15 C15         0.6809   -5.6116    1.5469 C.3       1 UNK         0.0000 
     16 N16         0.2552   -5.3637    0.1587 N.am      1 UNK         0.0000 
     17 C17        -0.4163   -4.2781   -0.2528 C.2       1 UNK         0.0000 
     18 O18        -0.7091   -3.3677    0.5135 O.2       1 UNK         0.0000 
     19 C19        -0.8266   -4.2045   -1.7375 C.3       1 UNK         0.0000 
     20 C20        -1.5170   -2.8859   -2.2025 C.3       1 UNK         0.0000 
     21 C21        -0.6868   -1.6349   -1.9174 C.2       1 UNK         0.0000 
     22 O22        -0.8485   -0.9280   -0.9252 O.co2     1 UNK         0.0000 
     23 N23         0.3393   -1.1670   -2.6419 N.am      1 UNK         0.0000 
     24 O24         0.9574   -0.1004   -2.1059 O.co2     1 UNK         0.0000 
     25 C25         0.5267   -1.4107   -4.0664 C.3       1 UNK         0.0000 
     26 C26        -0.3047   -0.4009   -4.8735 C.3       1 UNK         0.0000 
     27 C27        -0.0115   -0.3590   -6.3756 C.3       1 UNK         0.0000 
     28 C28        -0.9417    0.6149   -7.1394 C.3       1 UNK         0.0000 
     29 C29        -0.9224    2.0902   -6.6659 C.3       1 UNK         0.0000 
     30 N30        -1.7552    2.3326   -5.4775 N.am      1 UNK         0.0000 
     31 C31        -1.4043    3.0887   -4.4233 C.2       1 UNK         0.0000 
     32 O32        -0.3463    3.7073   -4.3646 O.2       1 UNK         0.0000 
     33 C33        -2.4164    3.1816   -3.2700 C.3       1 UNK         0.0000 
     34 C34        -1.8772    3.7952   -1.9409 C.3       1 UNK         0.0000 
     35 C35        -0.9785    2.8554   -1.1236 C.2       1 UNK         0.0000 
     36 O36        -1.2162    1.6605   -0.9345 O.co2     1 UNK         0.0000 
     37 N37         0.1643    3.2035   -0.4980 N.am      1 UNK         0.0000 
     38 O38         0.8016    2.2039    0.1143 O.co2     1 UNK         0.0000 
     39 C39         0.6759    4.5616   -0.2943 C.3       1 UNK         0.0000 
     40 C40         0.1242    5.1702    1.0128 C.3       1 UNK         0.0000 
     41 C41         0.7597    6.5008    1.4561 C.3       1 UNK         0.0000 
     42 C42         0.5401    7.6905    0.4986 C.3       1 UNK         0.0000 
     43 C43         1.0971    8.9947    1.0938 C.3       1 UNK         0.0000 
     44 N44         0.8765   10.1634    0.1203 N.4       1 UNK         0.0000 
     45 H45         1.3485   10.0006   -0.7585 H         1 UNK         0.0000 
     46 H46         1.2509   11.0055    0.5265 H         1 UNK         0.0000 
     47 H47        -0.1079   10.3085   -0.0581 H         1 UNK         0.0000 
     48 H48        -4.3188   -1.7980    2.9623 H         1 UNK         0.0000 
     49 H49        -3.6663   -1.3604    1.4254 H         1 UNK         0.0000 
     50 H50        -2.7197   -0.1599    3.5144 H         1 UNK         0.0000 
     51 H51        -1.9587   -1.6101    4.0372 H         1 UNK         0.0000 
     52 H52         1.7440   -1.0086    3.8693 H         1 UNK         0.0000 
     53 H53         0.1738   -1.2830    4.5467 H         1 UNK         0.0000 
     54 H54        -0.0827   -3.3592    3.1821 H         1 UNK         0.0000 
     55 H55         1.2307   -3.4332    4.3136 H         1 UNK         0.0000 
     56 H56         1.6468   -2.8131    1.3369 H         1 UNK         0.0000 
     57 H57         2.8824   -2.9836    2.5258 H         1 UNK         0.0000 
     58 H58         2.7562   -5.0522    1.2457 H         1 UNK         0.0000 
     59 H59         2.3268   -5.3457    2.9035 H         1 UNK         0.0000 
     60 H60         0.8208   -6.6874    1.6793 H         1 UNK         0.0000 
     61 H61        -0.1425   -5.3618    2.2209 H         1 UNK         0.0000 
     62 H62         0.4897   -6.0593   -0.5334 H         1 UNK         0.0000 
     63 H63        -1.5291   -5.0167   -1.9086 H         1 UNK         0.0000 
     64 H64         0.0116   -4.4544   -2.3856 H         1 UNK         0.0000 
     65 H65        -1.7573   -2.9302   -3.2649 H         1 UNK         0.0000 
     66 H66        -2.4951   -2.7986   -1.7275 H         1 UNK         0.0000 
     67 H67         0.2560   -2.4296   -4.3384 H         1 UNK         0.0000 
     68 H68         1.5893   -1.3219   -4.3085 H         1 UNK         0.0000 
     69 H69        -0.0961    0.5877   -4.4642 H         1 UNK         0.0000 
     70 H70        -1.3666   -0.6046   -4.7082 H         1 UNK         0.0000 
     71 H71         1.0321   -0.0649   -6.5156 H         1 UNK         0.0000 
     72 H72        -0.1079   -1.3624   -6.8023 H         1 UNK         0.0000 
     73 H73        -1.9661    0.2376   -7.1239 H         1 UNK         0.0000 
     74 H74        -0.6427    0.5948   -8.1895 H         1 UNK         0.0000 
     75 H75         0.1173    2.3757   -6.4814 H         1 UNK         0.0000 
     76 H76        -1.2548    2.7487   -7.4724 H         1 UNK         0.0000 
     77 H77        -2.6793    1.9343   -5.4823 H         1 UNK         0.0000 
     78 H78        -2.9508    2.2443   -3.1061 H         1 UNK         0.0000 
     79 H79        -3.1843    3.8615   -3.6432 H         1 UNK         0.0000 
     80 H80        -1.4579    4.7833   -2.1070 H         1 UNK         0.0000 
     81 H81        -2.7300    3.9856   -1.2935 H         1 UNK         0.0000 
     82 H82         0.4534    5.2081   -1.1425 H         1 UNK         0.0000 
     83 H83         1.7681    4.5147   -0.2645 H         1 UNK         0.0000 
     84 H84         0.2770    4.4424    1.8129 H         1 UNK         0.0000 
     85 H85        -0.9565    5.2971    0.9180 H         1 UNK         0.0000 
     86 H86         1.8263    6.3420    1.6259 H         1 UNK         0.0000 
     87 H87         0.3377    6.7411    2.4337 H         1 UNK         0.0000 
     88 H88        -0.5272    7.7956    0.2890 H         1 UNK         0.0000 
     89 H89         1.0250    7.4781   -0.4569 H         1 UNK         0.0000 
     90 H90         2.1761    8.9529    1.2640 H         1 UNK         0.0000 
     91 H91         0.5919    9.2877    2.0181 H         1 UNK         0.0000 
     92 H92        -2.5126   -4.8815    2.8783 H         1 UNK         0.0000 
@<TRIPOS>BOND
     1    1    8 nc   
     2    1   10 nc   
     3    1   22 nc   
     4    1   24 nc   
     5    1   36 nc   
     6    1   38 nc   
     7    2    3 1    
     8    2   92 1    
     9    3    5 1    
    10    3    4 2    
    11    5   48 1    
    12    5    6 1    
    13    5   49 1    
    14    6   50 1    
    15    6   51 1    
    16    6    7 1    
    17    7    9 am   BACKBONE|DICT|INTERRES
    18    7    8 2    
    19    9   11 1    
    20    9   10 1    
    21   11   52 1    
    22   11   53 1    
    23   11   12 1    
    24   12   55 1    
    25   12   13 1    
    26   12   54 1    
    27   13   57 1    
    28   13   14 1    
    29   13   56 1    
    30   14   59 1    
    31   14   15 1    
    32   14   58 1    
    33   15   60 1    
    34   15   61 1    
    35   15   16 1    
    36   16   17 am   BACKBONE|DICT|INTERRES
    37   16   62 1    
    38   17   18 2    
    39   17   19 1    
    40   19   20 1    
    41   19   63 1    
    42   19   64 1    
    43   20   21 1    
    44   20   66 1    
    45   20   65 1    
    46   21   22 2    
    47   21   23 am   BACKBONE|DICT|INTERRES
    48   23   24 1    
    49   23   25 1    
    50   25   26 1    
    51   25   67 1    
    52   25   68 1    
    53   26   70 1    
    54   26   69 1    
    55   26   27 1    
    56   27   28 1    
    57   27   71 1    
    58   27   72 1    
    59   28   29 1    
    60   28   73 1    
    61   28   74 1    
    62   29   75 1    
    63   29   30 1    
    64   29   76 1    
    65   30   31 am   BACKBONE|DICT|INTERRES
    66   30   77 1    
    67   31   32 2    
    68   31   33 1    
    69   33   78 1    
    70   33   34 1    
    71   33   79 1    
    72   34   81 1    
    73   34   35 1    
    74   34   80 1    
    75   35   36 2    
    76   35   37 am   BACKBONE|DICT|INTERRES
    77   37   39 1    
    78   37   38 1    
    79   39   83 1    
    80   39   40 1    
    81   39   82 1    
    82   40   41 1    
    83   40   84 1    
    84   40   85 1    
    85   41   86 1    
    86   41   87 1    
    87   41   42 1    
    88   42   43 1    
    89   42   88 1    
    90   42   89 1    
    91   43   90 1    
    92   43   91 1    
    93   43   44 1    
    94   44   46 1    
    95   44   45 1    
    96   44   47 1    
@<TRIPOS>SUBSTRUCTURE
     1 UNK         1 GROUP             0       ****    0 ROOT    
@<TRIPOS>MOLECULE
099_c1
89   93    1
SMALL
USER_CHARGES


@<TRIPOS>ATOM
      1 Fe1         0.0268   -0.2224    0.0403 Fe        1 UNK         0.0000 
      2 O2          5.0085    1.9811   -4.5685 O.2       1 UNK         0.0000 
      3 C3          4.1148    2.7955   -4.3995 C.2       1 UNK         0.0000 
      4 O4          4.2843    4.1447   -4.4786 O.3       1 UNK         0.0000 
      5 C5          2.6812    2.3909   -4.0243 C.3       1 UNK         0.0000 
      6 C6          2.6888    1.5729   -2.7074 C.3       1 UNK         0.0000 
      7 C7          1.4061    0.8910   -2.1779 C.2       1 UNK         0.0000 
      8 O8          1.4617    0.2386   -1.1283 O.co2     1 UNK         0.0000 
      9 N9          0.1164    0.9940   -2.6187 N.am      1 UNK         0.0000 
     10 O10        -0.8290    0.4046   -1.8588 O.co2     1 UNK         0.0000 
     11 C11        -0.4019    1.6078   -3.8570 C.3       1 UNK         0.0000 
     12 C12        -0.7501    3.1227   -3.8296 C.3       1 UNK         0.0000 
     13 C13        -1.4444    3.7184   -2.5776 C.3       1 UNK         0.0000 
     14 C14        -0.5643    4.6380   -1.7008 C.3       1 UNK         0.0000 
     15 N15         0.3155    3.9149   -0.7837 N.am      1 UNK         0.0000 
     16 C16         1.2209    4.5172    0.0085 C.2       1 UNK         0.0000 
     17 O17         1.4664    5.7164   -0.0689 O.2       1 UNK         0.0000 
     18 C18         1.9667    3.6692    1.0555 C.3       1 UNK         0.0000 
     19 C19         1.0876    3.1213    2.2232 C.3       1 UNK         0.0000 
     20 C20         0.2633    1.9061    1.8148 C.2       1 UNK         0.0000 
     21 O21         0.4539    1.3132    0.7577 O.co2     1 UNK         0.0000 
     22 N22        -0.6550    1.2439    2.5423 N.am      1 UNK         0.0000 
     23 O23        -1.1263    0.1262    1.9547 O.co2     1 UNK         0.0000 
     24 C24        -0.9486    1.4649    3.9655 C.3       1 UNK         0.0000 
     25 C25         0.1057    0.8105    4.8786 C.3       1 UNK         0.0000 
     26 C26        -0.2741    0.7512    6.3761 C.3       1 UNK         0.0000 
     27 C27         0.6533   -0.1712    7.2120 C.3       1 UNK         0.0000 
     28 C28         0.2156   -1.6546    7.3006 C.3       1 UNK         0.0000 
     29 N29        -0.0508   -2.2770    6.0009 N.am      1 UNK         0.0000 
     30 C30         0.8730   -2.6871    5.1223 C.2       1 UNK         0.0000 
     31 O31         2.0769   -2.6607    5.3588 O.2       1 UNK         0.0000 
     32 C32         0.3316   -3.1347    3.7558 C.3       1 UNK         0.0000 
     33 C33         1.3543   -3.1530    2.5690 C.3       1 UNK         0.0000 
     34 C34         0.8083   -2.4607    1.3164 C.2       1 UNK         0.0000 
     35 O35         1.1561   -1.3374    0.9358 O.co2     1 UNK         0.0000 
     36 N36        -0.2600   -2.8899    0.6130 N.am      1 UNK         0.0000 
     37 O37        -0.7867   -2.0278   -0.2615 O.co2     1 UNK         0.0000 
     38 C38        -0.9317   -4.1845    0.7763 C.3       1 UNK         0.0000 
     39 C39        -0.7950   -5.0978   -0.4552 C.3       1 UNK         0.0000 
     40 C40        -1.5223   -6.4469   -0.2713 C.3       1 UNK         0.0000 
     41 C41        -1.2531   -7.4568   -1.4033 C.3       1 UNK         0.0000 
     42 C42        -1.7654   -6.9883   -2.7794 C.3       1 UNK         0.0000 
     43 N43        -1.4935   -8.0758   -3.8314 N.4       1 UNK         0.0000 
     44 H44        -1.9623   -8.9352   -3.5812 H         1 UNK         0.0000 
     45 H45        -1.8311   -7.7790   -4.7361 H         1 UNK         0.0000 
     46 H46        -0.5027   -8.2584   -3.9030 H         1 UNK         0.0000 
     47 H47         2.3543    1.7869   -4.8720 H         1 UNK         0.0000 
     48 H48         2.1195    3.3180   -3.9413 H         1 UNK         0.0000 
     49 H49         3.0162    2.2327   -1.8969 H         1 UNK         0.0000 
     50 H50         3.4193    0.7664   -2.7978 H         1 UNK         0.0000 
     51 H51         0.2548    1.3990   -4.6967 H         1 UNK         0.0000 
     52 H52        -1.3220    1.0808   -4.1301 H         1 UNK         0.0000 
     53 H53        -1.4051    3.2990   -4.6852 H         1 UNK         0.0000 
     54 H54         0.1169    3.7257   -4.0765 H         1 UNK         0.0000 
     55 H55        -2.2622    4.3481   -2.9385 H         1 UNK         0.0000 
     56 H56        -1.9392    2.9501   -1.9800 H         1 UNK         0.0000 
     57 H57         0.0493    5.2770   -2.3373 H         1 UNK         0.0000 
     58 H58        -1.2013    5.3266   -1.1356 H         1 UNK         0.0000 
     59 H59         0.1384    2.9287   -0.6916 H         1 UNK         0.0000 
     60 H60         2.7164    4.3363    1.4845 H         1 UNK         0.0000 
     61 H61         2.5957    2.9061    0.5999 H         1 UNK         0.0000 
     62 H62         1.7779    2.7369    2.9744 H         1 UNK         0.0000 
     63 H63         0.5246    3.8984    2.7356 H         1 UNK         0.0000 
     64 H64        -1.0405    2.5231    4.1997 H         1 UNK         0.0000 
     65 H65        -1.9318    1.0414    4.1846 H         1 UNK         0.0000 
     66 H66         0.2954   -0.1880    4.4962 H         1 UNK         0.0000 
     67 H67         1.0565    1.3403    4.7867 H         1 UNK         0.0000 
     68 H68        -0.2356    1.7594    6.7995 H         1 UNK         0.0000 
     69 H69        -1.3096    0.4276    6.4975 H         1 UNK         0.0000 
     70 H70         0.7203    0.2131    8.2318 H         1 UNK         0.0000 
     71 H71         1.6780   -0.1188    6.8377 H         1 UNK         0.0000 
     72 H72        -0.7283   -1.7111    7.8463 H         1 UNK         0.0000 
     73 H73         0.9453   -2.2435    7.8646 H         1 UNK         0.0000 
     74 H74        -1.0136   -2.3160    5.7069 H         1 UNK         0.0000 
     75 H75        -0.4968   -2.4559    3.5268 H         1 UNK         0.0000 
     76 H76        -0.1663   -4.0991    3.8509 H         1 UNK         0.0000 
     77 H77         2.2767   -2.6414    2.8575 H         1 UNK         0.0000 
     78 H78         1.6926   -4.1646    2.3462 H         1 UNK         0.0000 
     79 H79        -1.9838   -3.9996    1.0069 H         1 UNK         0.0000 
     80 H80        -0.5675   -4.7358    1.6415 H         1 UNK         0.0000 
     81 H81        -1.1812   -4.5673   -1.3260 H         1 UNK         0.0000 
     82 H82         0.2664   -5.2759   -0.6363 H         1 UNK         0.0000 
     83 H83        -1.2062   -6.8989    0.6741 H         1 UNK         0.0000 
     84 H84        -2.5978   -6.2850   -0.1729 H         1 UNK         0.0000 
     85 H85        -0.1814   -7.6631   -1.4479 H         1 UNK         0.0000 
     86 H86        -1.7235   -8.4064   -1.1391 H         1 UNK         0.0000 
     87 H87        -2.8468   -6.8277   -2.7935 H         1 UNK         0.0000 
     88 H88        -1.2540   -6.0952   -3.1476 H         1 UNK         0.0000 
     89 H89         3.4776    4.6149   -4.2812 H         1 UNK         0.0000 
@<TRIPOS>BOND
     1    1    8 nc   
     2    1   10 nc   
     3    1   21 nc   
     4    1   23 nc   
     5    1   35 nc   
     6    1   37 nc   
     7    2    3 2    
     8    3    5 1    
     9    3    4 1    
    10    4   89 1    
    11    5   48 1    
    12    5    6 1    
    13    5   47 1    
    14    6   49 1    
    15    6    7 1    
    16    6   50 1    
    17    7    8 2    
    18    7    9 am   BACKBONE|DICT|INTERRES
    19    9   10 1    
    20    9   11 1    
    21   11   12 1    
    22   11   51 1    
    23   11   52 1    
    24   12   13 1    
    25   12   53 1    
    26   12   54 1    
    27   13   56 1    
    28   13   14 1    
    29   13   55 1    
    30   14   58 1    
    31   14   15 1    
    32   14   57 1    
    33   15   59 1    
    34   15   16 am   BACKBONE|DICT|INTERRES
    35   16   18 1    
    36   16   17 2    
    37   18   60 1    
    38   18   19 1    
    39   18   61 1    
    40   19   63 1    
    41   19   62 1    
    42   19   20 1    
    43   20   21 2    
    44   20   22 am   BACKBONE|DICT|INTERRES
    45   22   24 1    
    46   22   23 1    
    47   24   65 1    
    48   24   64 1    
    49   24   25 1    
    50   25   26 1    
    51   25   66 1    
    52   25   67 1    
    53   26   69 1    
    54   26   68 1    
    55   26   27 1    
    56   27   28 1    
    57   27   70 1    
    58   27   71 1    
    59   28   73 1    
    60   28   72 1    
    61   28   29 1    
    62   29   30 am   BACKBONE|DICT|INTERRES
    63   29   74 1    
    64   30   31 2    
    65   30   32 1    
    66   32   76 1    
    67   32   33 1    
    68   32   75 1    
    69   33   77 1    
    70   33   34 1    
    71   33   78 1    
    72   34   36 am   BACKBONE|DICT|INTERRES
    73   34   35 2    
    74   36   38 1    
    75   36   37 1    
    76   38   79 1    
    77   38   80 1    
    78   38   39 1    
    79   39   40 1    
    80   39   81 1    
    81   39   82 1    
    82   40   84 1    
    83   40   83 1    
    84   40   41 1    
    85   41   86 1    
    86   41   42 1    
    87   41   85 1    
    88   42   87 1    
    89   42   43 1    
    90   42   88 1    
    91   43   44 1    
    92   43   45 1    
    93   43   46 1    
@<TRIPOS>SUBSTRUCTURE
     1 UNK         1 GROUP             0       ****    0 ROOT    
@<TRIPOS>MOLECULE
100_c1
89   93    1
SMALL
USER_CHARGES


@<TRIPOS>ATOM
      1 Fe1        -0.0635   -0.3212    0.1922 Fe        1 UNK         0.0000 
      2 O2          4.3326    3.8939   -3.3559 O.2       1 UNK         0.0000 
      3 C3          4.3400    3.2708   -2.3045 C.2       1 UNK         0.0000 
      4 O4          5.4218    3.1722   -1.4862 O.3       1 UNK         0.0000 
      5 C5          3.1003    2.5646   -1.7432 C.3       1 UNK         0.0000 
      6 C6          2.5245    1.4659   -2.6738 C.3       1 UNK         0.0000 
      7 C7          1.2890    0.8271   -2.0113 C.2       1 UNK         0.0000 
      8 O8          1.3262    0.2290   -0.9239 O.co2     1 UNK         0.0000 
      9 N9          0.0163    0.9512   -2.4514 N.am      1 UNK         0.0000 
     10 O10        -0.9486    0.4530   -1.6723 O.co2     1 UNK         0.0000 
     11 C11        -0.4284    1.6710   -3.6643 C.3       1 UNK         0.0000 
     12 C12        -0.3794    3.2207   -3.5625 C.3       1 UNK         0.0000 
     13 C13        -0.9124    3.8047   -2.2364 C.3       1 UNK         0.0000 
     14 C14        -0.7348    5.3351   -2.0963 C.3       1 UNK         0.0000 
     15 C15        -0.8236    5.8314   -0.6402 C.3       1 UNK         0.0000 
     16 N16         0.2605    5.2770    0.1854 N.am      1 UNK         0.0000 
     17 C17         0.0796    4.4866    1.2488 C.2       1 UNK         0.0000 
     18 O18        -1.0225    4.2290    1.7170 O.2       1 UNK         0.0000 
     19 C19         1.3363    3.8247    1.8356 C.3       1 UNK         0.0000 
     20 C20         1.0597    2.7085    2.8798 C.3       1 UNK         0.0000 
     21 C21         0.2887    1.5242    2.2816 C.2       1 UNK         0.0000 
     22 O22         0.5966    0.9957    1.2124 O.co2     1 UNK         0.0000 
     23 N23        -0.8182    0.9476    2.7753 N.am      1 UNK         0.0000 
     24 O24        -1.3571   -0.0180    2.0163 O.co2     1 UNK         0.0000 
     25 C25        -1.5193    1.3521    3.9951 C.3       1 UNK         0.0000 
     26 C26        -0.8339    0.8807    5.3049 C.3       1 UNK         0.0000 
     27 C27        -0.7738   -0.6474    5.5620 C.3       1 UNK         0.0000 
     28 C28         0.3018   -1.4035    4.7584 C.3       1 UNK         0.0000 
     29 N29         0.1714   -2.8531    4.8782 N.am      1 UNK         0.0000 
     30 C30         0.7864   -3.7973    4.1646 C.2       1 UNK         0.0000 
     31 O31         0.4334   -4.9666    4.2492 O.2       1 UNK         0.0000 
     32 C32         1.9453   -3.4429    3.2164 C.3       1 UNK         0.0000 
     33 C33         1.6648   -3.8285    1.7422 C.3       1 UNK         0.0000 
     34 C34         0.7811   -2.8071    1.0055 C.2       1 UNK         0.0000 
     35 O35         0.9966   -1.5844    0.9793 O.co2     1 UNK         0.0000 
     36 N36        -0.2854   -3.0995    0.2407 N.am      1 UNK         0.0000 
     37 O37        -0.8645   -2.0548   -0.3547 O.co2     1 UNK         0.0000 
     38 C38        -0.9274   -4.4094    0.0799 C.3       1 UNK         0.0000 
     39 C39        -0.3545   -5.1947   -1.1177 C.3       1 UNK         0.0000 
     40 C40        -1.1162   -6.5055   -1.3994 C.3       1 UNK         0.0000 
     41 C41        -0.4893   -7.3397   -2.5383 C.3       1 UNK         0.0000 
     42 C42         0.9237   -7.8736   -2.2227 C.3       1 UNK         0.0000 
     43 N43         1.4312   -8.7685   -3.3666 N.4       1 UNK         0.0000 
     44 H44         1.4814   -8.2463   -4.2293 H         1 UNK         0.0000 
     45 H45         0.8217   -9.5625   -3.5048 H         1 UNK         0.0000 
     46 H46         2.3558   -9.1216   -3.1615 H         1 UNK         0.0000 
     47 H47         3.3233    2.1721   -0.7476 H         1 UNK         0.0000 
     48 H48         2.3660    3.3632   -1.6582 H         1 UNK         0.0000 
     49 H49         2.2166    1.8818   -3.6334 H         1 UNK         0.0000 
     50 H50         3.2491    0.6688   -2.8432 H         1 UNK         0.0000 
     51 H51         0.1654    1.3445   -4.5209 H         1 UNK         0.0000 
     52 H52        -1.4588    1.3790   -3.8969 H         1 UNK         0.0000 
     53 H53        -0.9372    3.6446   -4.4008 H         1 UNK         0.0000 
     54 H54         0.6491    3.5540   -3.7088 H         1 UNK         0.0000 
     55 H55        -1.9676    3.5430   -2.1230 H         1 UNK         0.0000 
     56 H56        -0.3981    3.3054   -1.4138 H         1 UNK         0.0000 
     57 H57         0.2215    5.6502   -2.5208 H         1 UNK         0.0000 
     58 H58        -1.5026    5.8307   -2.6939 H         1 UNK         0.0000 
     59 H59        -1.8025    5.5346   -0.2510 H         1 UNK         0.0000 
     60 H60        -0.8057    6.9188   -0.5961 H         1 UNK         0.0000 
     61 H61         1.1998    5.5523   -0.0475 H         1 UNK         0.0000 
     62 H62         1.9800    3.4402    1.0471 H         1 UNK         0.0000 
     63 H63         1.9264    4.6091    2.3022 H         1 UNK         0.0000 
     64 H64         0.5897    3.1181    3.7719 H         1 UNK         0.0000 
     65 H65         2.0116    2.3070    3.2309 H         1 UNK         0.0000 
     66 H66        -1.6472    2.4422    4.0052 H         1 UNK         0.0000 
     67 H67        -2.5352    0.9554    3.9572 H         1 UNK         0.0000 
     68 H68         0.1622    1.3179    5.3719 H         1 UNK         0.0000 
     69 H69        -1.3970    1.3355    6.1200 H         1 UNK         0.0000 
     70 H70        -1.7595   -1.0809    5.3812 H         1 UNK         0.0000 
     71 H71        -0.5728   -0.7925    6.6240 H         1 UNK         0.0000 
     72 H72         0.1995   -1.1495    3.7077 H         1 UNK         0.0000 
     73 H73         1.2976   -1.0562    5.0477 H         1 UNK         0.0000 
     74 H74        -0.5786   -3.2059    5.4506 H         1 UNK         0.0000 
     75 H75         2.7695   -4.0606    3.5744 H         1 UNK         0.0000 
     76 H76         2.3160   -2.4210    3.2989 H         1 UNK         0.0000 
     77 H77         1.3392   -4.8610    1.6373 H         1 UNK         0.0000 
     78 H78         2.6062   -3.7975    1.2000 H         1 UNK         0.0000 
     79 H79        -2.0051   -4.2818   -0.0426 H         1 UNK         0.0000 
     80 H80        -0.8425   -5.0064    0.9915 H         1 UNK         0.0000 
     81 H81        -0.3692   -4.5642   -2.0103 H         1 UNK         0.0000 
     82 H82         0.6898   -5.4133   -0.8950 H         1 UNK         0.0000 
     83 H83        -1.1906   -7.0955   -0.4840 H         1 UNK         0.0000 
     84 H84        -2.1448   -6.2447   -1.6676 H         1 UNK         0.0000 
     85 H85        -1.1629   -8.1670   -2.7652 H         1 UNK         0.0000 
     86 H86        -0.4636   -6.7218   -3.4357 H         1 UNK         0.0000 
     87 H87         0.9500   -8.4986   -1.3268 H         1 UNK         0.0000 
     88 H88         1.6658   -7.0763   -2.1431 H         1 UNK         0.0000 
     89 H89         5.2606    2.6280   -0.7202 H         1 UNK         0.0000 
@<TRIPOS>BOND
     1    1    8 nc   
     2    1   10 nc   
     3    1   22 nc   
     4    1   24 nc   
     5    1   35 nc   
     6    1   37 nc   
     7    2    3 2    
     8    3    4 1    
     9    3    5 1    
    10    4   89 1    
    11    5   48 1    
    12    5   47 1    
    13    5    6 1    
    14    6    7 1    
    15    6   49 1    
    16    6   50 1    
    17    7    8 2    
    18    7    9 am   BACKBONE|DICT|INTERRES
    19    9   10 1    
    20    9   11 1    
    21   11   12 1    
    22   11   51 1    
    23   11   52 1    
    24   12   13 1    
    25   12   53 1    
    26   12   54 1    
    27   13   14 1    
    28   13   55 1    
    29   13   56 1    
    30   14   15 1    
    31   14   57 1    
    32   14   58 1    
    33   15   60 1    
    34   15   59 1    
    35   15   16 1    
    36   16   17 am   BACKBONE|DICT|INTERRES
    37   16   61 1    
    38   17   18 2    
    39   17   19 1    
    40   19   63 1    
    41   19   20 1    
    42   19   62 1    
    43   20   65 1    
    44   20   64 1    
    45   20   21 1    
    46   21   22 2    
    47   21   23 am   BACKBONE|DICT|INTERRES
    48   23   25 1    
    49   23   24 1    
    50   25   26 1    
    51   25   66 1    
    52   25   67 1    
    53   26   68 1    
    54   26   27 1    
    55   26   69 1    
    56   27   71 1    
    57   27   28 1    
    58   27   70 1    
    59   28   29 1    
    60   28   73 1    
    61   28   72 1    
    62   29   74 1    
    63   29   30 am   BACKBONE|DICT|INTERRES
    64   30   31 2    
    65   30   32 1    
    66   32   76 1    
    67   32   75 1    
    68   32   33 1    
    69   33   34 1    
    70   33   77 1    
    71   33   78 1    
    72   34   36 am   BACKBONE|DICT|INTERRES
    73   34   35 2    
    74   36   37 1    
    75   36   38 1    
    76   38   80 1    
    77   38   39 1    
    78   38   79 1    
    79   39   82 1    
    80   39   40 1    
    81   39   81 1    
    82   40   83 1    
    83   40   41 1    
    84   40   84 1    
    85   41   42 1    
    86   41   85 1    
    87   41   86 1    
    88   42   88 1    
    89   42   87 1    
    90   42   43 1    
    91   43   46 1    
    92   43   44 1    
    93   43   45 1    
@<TRIPOS>SUBSTRUCTURE
     1 UNK         1 GROUP             0       ****    0 ROOT    
@<TRIPOS>MOLECULE
101_c1
89   93    1
SMALL
USER_CHARGES


@<TRIPOS>ATOM
      1 Fe1         0.4462   -0.8740   -0.1619 Fe        1 UNK         0.0000 
      2 O2          5.4254    4.2193   -1.6801 O.2       1 UNK         0.0000 
      3 C3          4.9712    3.7096   -0.6609 C.2       1 UNK         0.0000 
      4 O4          5.5710    3.7724    0.5562 O.3       1 UNK         0.0000 
      5 C5          3.6502    2.9263   -0.6265 C.3       1 UNK         0.0000 
      6 C6          3.6720    1.7237   -1.6089 C.3       1 UNK         0.0000 
      7 C7          2.4017    0.8653   -1.5112 C.2       1 UNK         0.0000 
      8 O8          2.3836   -0.1982   -0.8766 O.co2     1 UNK         0.0000 
      9 N9          1.1971    1.2343   -1.9979 N.am      1 UNK         0.0000 
     10 O10         0.1850    0.4030   -1.7990 O.co2     1 UNK         0.0000 
     11 C11         0.8595    2.5225   -2.6469 C.3       1 UNK         0.0000 
     12 C12        -0.1536    3.4272   -1.8801 C.3       1 UNK         0.0000 
     13 C13        -1.5843    2.8620   -1.7112 C.3       1 UNK         0.0000 
     14 C14        -2.6635    3.8712   -1.2568 C.3       1 UNK         0.0000 
     15 C15        -2.4822    4.4469    0.1608 C.3       1 UNK         0.0000 
     16 N16        -2.6803    3.4484    1.2161 N.am      1 UNK         0.0000 
     17 C17        -1.8341    3.1980    2.2267 C.2       1 UNK         0.0000 
     18 O18        -0.7383    3.7400    2.3424 O.2       1 UNK         0.0000 
     19 C19        -2.2983    2.1771    3.2815 C.3       1 UNK         0.0000 
     20 C20        -2.5477    0.7253    2.7833 C.3       1 UNK         0.0000 
     21 C21        -1.3548    0.1245    2.0251 C.2       1 UNK         0.0000 
     22 O22        -1.3548   -0.0973    0.8069 O.co2     1 UNK         0.0000 
     23 N23        -0.1602   -0.0855    2.6092 N.am      1 UNK         0.0000 
     24 O24         0.8437   -0.4032    1.8171 O.co2     1 UNK         0.0000 
     25 C25         0.0949   -0.2870    4.0397 C.3       1 UNK         0.0000 
     26 C26         0.4853   -1.7538    4.3408 C.3       1 UNK         0.0000 
     27 C27         0.5734   -2.1323    5.8322 C.3       1 UNK         0.0000 
     28 C28         0.9487   -3.6163    6.0728 C.3       1 UNK         0.0000 
     29 C29         0.1011   -4.6640    5.3131 C.3       1 UNK         0.0000 
     30 N30         0.6689   -5.0853    4.0277 N.am      1 UNK         0.0000 
     31 C31         0.0833   -5.0050    2.8241 C.2       1 UNK         0.0000 
     32 O32        -1.0008   -4.4675    2.6246 O.2       1 UNK         0.0000 
     33 C33         0.8001   -5.7004    1.6556 C.3       1 UNK         0.0000 
     34 C34         1.5629   -4.8065    0.6327 C.3       1 UNK         0.0000 
     35 C35         0.8795   -3.5483    0.0701 C.2       1 UNK         0.0000 
     36 O36         1.2734   -2.3878    0.2464 O.co2     1 UNK         0.0000 
     37 N37        -0.2229   -3.4989   -0.7123 N.am      1 UNK         0.0000 
     38 O38        -0.6234   -2.2679   -1.0430 O.co2     1 UNK         0.0000 
     39 C39        -0.9463   -4.6178   -1.3002 C.3       1 UNK         0.0000 
     40 C40        -0.3232   -5.0082   -2.6556 C.3       1 UNK         0.0000 
     41 C41        -1.0023   -6.1882   -3.3734 C.3       1 UNK         0.0000 
     42 C42        -2.4205   -5.8801   -3.8858 C.3       1 UNK         0.0000 
     43 N43        -2.9534   -7.0908   -4.6692 N.4       1 UNK         0.0000 
     44 H44        -2.9950   -7.9133   -4.0819 H         1 UNK         0.0000 
     45 H45        -2.3560   -7.2883   -5.4611 H         1 UNK         0.0000 
     46 H46        -3.8830   -6.8957   -5.0136 H         1 UNK         0.0000 
     47 H47         3.4465    2.5975    0.3985 H         1 UNK         0.0000 
     48 H48         2.8975    3.6619   -0.9153 H         1 UNK         0.0000 
     49 H49         4.4821    1.0443   -1.3333 H         1 UNK         0.0000 
     50 H50         3.7940    2.0407   -2.6447 H         1 UNK         0.0000 
     51 H51         0.4642    2.3062   -3.6449 H         1 UNK         0.0000 
     52 H52         1.7517    3.1177   -2.8422 H         1 UNK         0.0000 
     53 H53         0.2691    3.6762   -0.9061 H         1 UNK         0.0000 
     54 H54        -0.2218    4.3725   -2.4226 H         1 UNK         0.0000 
     55 H55        -1.5604    2.0407   -0.9923 H         1 UNK         0.0000 
     56 H56        -1.8970    2.4170   -2.6575 H         1 UNK         0.0000 
     57 H57        -2.7000    4.6925   -1.9729 H         1 UNK         0.0000 
     58 H58        -3.6457    3.4038   -1.3216 H         1 UNK         0.0000 
     59 H59        -3.1835    5.2655    0.3257 H         1 UNK         0.0000 
     60 H60        -1.4854    4.8920    0.2280 H         1 UNK         0.0000 
     61 H61        -3.5501    2.9410    1.2106 H         1 UNK         0.0000 
     62 H62        -3.2025    2.5663    3.7467 H         1 UNK         0.0000 
     63 H63        -1.5932    2.1578    4.1139 H         1 UNK         0.0000 
     64 H64        -2.7720    0.0862    3.6355 H         1 UNK         0.0000 
     65 H65        -3.4630    0.6743    2.1961 H         1 UNK         0.0000 
     66 H66         0.8834    0.3995    4.3448 H         1 UNK         0.0000 
     67 H67        -0.7620   -0.0090    4.6541 H         1 UNK         0.0000 
     68 H68        -0.2703   -2.3773    3.8677 H         1 UNK         0.0000 
     69 H69         1.4358   -1.9764    3.8550 H         1 UNK         0.0000 
     70 H70         1.3102   -1.4958    6.3262 H         1 UNK         0.0000 
     71 H71        -0.3875   -1.9238    6.3046 H         1 UNK         0.0000 
     72 H72         2.0073   -3.7776    5.8684 H         1 UNK         0.0000 
     73 H73         0.8413   -3.8035    7.1429 H         1 UNK         0.0000 
     74 H74        -0.9317   -4.3142    5.2209 H         1 UNK         0.0000 
     75 H75         0.0241   -5.5633    5.9213 H         1 UNK         0.0000 
     76 H76         1.5510   -5.5631    4.0682 H         1 UNK         0.0000 
     77 H77         0.0786   -6.3271    1.1323 H         1 UNK         0.0000 
     78 H78         1.5029   -6.4400    2.0416 H         1 UNK         0.0000 
     79 H79         2.5116   -4.4928    1.0680 H         1 UNK         0.0000 
     80 H80         1.8710   -5.4194   -0.2113 H         1 UNK         0.0000 
     81 H81        -0.9810   -5.4799   -0.6290 H         1 UNK         0.0000 
     82 H82        -1.9941   -4.3297   -1.4213 H         1 UNK         0.0000 
     83 H83         0.7227   -5.2677   -2.4758 H         1 UNK         0.0000 
     84 H84        -0.3125   -4.1287   -3.3014 H         1 UNK         0.0000 
     85 H85        -1.0175   -7.0456   -2.6989 H         1 UNK         0.0000 
     86 H86        -0.3654   -6.4616   -4.2141 H         1 UNK         0.0000 
     87 H87        -3.1371   -5.7054   -3.0787 H         1 UNK         0.0000 
     88 H88        -2.4367   -5.0490   -4.5964 H         1 UNK         0.0000 
     89 H89         5.0482    3.3101    1.2103 H         1 UNK         0.0000 
@<TRIPOS>BOND
     1    1    8 nc   
     2    1   10 nc   
     3    1   22 nc   
     4    1   24 nc   
     5    1   36 nc   
     6    1   38 nc   
     7    2    3 2    
     8    3    5 1    
     9    3    4 1    
    10    4   89 1    
    11    5   47 1    
    12    5    6 1    
    13    5   48 1    
    14    6   49 1    
    15    6    7 1    
    16    6   50 1    
    17    7    8 2    
    18    7    9 am   BACKBONE|DICT|INTERRES
    19    9   10 1    
    20    9   11 1    
    21   11   12 1    
    22   11   51 1    
    23   11   52 1    
    24   12   13 1    
    25   12   53 1    
    26   12   54 1    
    27   13   14 1    
    28   13   55 1    
    29   13   56 1    
    30   14   15 1    
    31   14   57 1    
    32   14   58 1    
    33   15   60 1    
    34   15   59 1    
    35   15   16 1    
    36   16   17 am   BACKBONE|DICT|INTERRES
    37   16   61 1    
    38   17   18 2    
    39   17   19 1    
    40   19   62 1    
    41   19   63 1    
    42   19   20 1    
    43   20   64 1    
    44   20   21 1    
    45   20   65 1    
    46   21   23 am   BACKBONE|DICT|INTERRES
    47   21   22 2    
    48   23   25 1    
    49   23   24 1    
    50   25   26 1    
    51   25   66 1    
    52   25   67 1    
    53   26   27 1    
    54   26   68 1    
    55   26   69 1    
    56   27   28 1    
    57   27   71 1    
    58   27   70 1    
    59   28   73 1    
    60   28   29 1    
    61   28   72 1    
    62   29   75 1    
    63   29   30 1    
    64   29   74 1    
    65   30   76 1    
    66   30   31 am   BACKBONE|DICT|INTERRES
    67   31   32 2    
    68   31   33 1    
    69   33   78 1    
    70   33   34 1    
    71   33   77 1    
    72   34   79 1    
    73   34   35 1    
    74   34   80 1    
    75   35   36 2    
    76   35   37 am   BACKBONE|DICT|INTERRES
    77   37   38 1    
    78   37   39 1    
    79   39   81 1    
    80   39   40 1    
    81   39   82 1    
    82   40   83 1    
    83   40   41 1    
    84   40   84 1    
    85   41   85 1    
    86   41   42 1    
    87   41   86 1    
    88   42   87 1    
    89   42   43 1    
    90   42   88 1    
    91   43   44 1    
    92   43   45 1    
    93   43   46 1    
@<TRIPOS>SUBSTRUCTURE
     1 UNK         1 GROUP             0       ****    0 ROOT    
@<TRIPOS>MOLECULE
102_c1
66   70    1
SMALL
USER_CHARGES


@<TRIPOS>ATOM
      1 Fe1        -0.5048   -0.9013    0.6180 Fe        1 UNK         0.0000 
      2 O2          1.1055   -0.5355    1.9020 O.co2     1 UNK         0.0000 
      3 C3          1.4014    0.6500    1.8240 C.2       1 UNK         0.0000 
      4 C4          2.8621    1.0747    1.8278 C.3       1 UNK         0.0000 
      5 N5          0.3441    1.4419    1.5702 N.am      1 UNK         0.0000 
      6 O6         -0.8776    0.9164    1.5119 O.co2     1 UNK         0.0000 
      7 C7          0.4054    2.8854    1.3004 C.3       1 UNK         0.0000 
      8 C8          0.8779    3.2006   -0.1393 C.3       1 UNK         0.0000 
      9 C9         -0.1393    2.8707   -1.2720 C.3       1 UNK         0.0000 
     10 C10         0.4314    3.2220   -2.6704 C.3       1 UNK         0.0000 
     11 C11        -0.5860    3.1025   -3.8332 C.3       1 UNK         0.0000 
     12 N12        -1.1366    1.7561   -4.0407 N.am      1 UNK         0.0000 
     13 C13        -0.4249    0.6993   -4.4657 C.2       1 UNK         0.0000 
     14 O14         0.7771    0.7586   -4.6873 O.2       1 UNK         0.0000 
     15 C15        -1.1738   -0.6389   -4.6426 C.3       1 UNK         0.0000 
     16 C16        -1.9189   -1.1791   -3.3910 C.3       1 UNK         0.0000 
     17 C17        -1.0612   -1.1477   -2.1372 C.2       1 UNK         0.0000 
     18 O18        -1.3692   -0.4189   -1.2055 O.co2     1 UNK         0.0000 
     19 N19         0.0896   -1.8470   -1.9471 N.am      1 UNK         0.0000 
     20 O20         0.7799   -1.6079   -0.8395 O.co2     1 UNK         0.0000 
     21 C21         0.5068   -3.0589   -2.6753 C.3       1 UNK         0.0000 
     22 C22         0.7065   -4.3182   -1.7712 C.3       1 UNK         0.0000 
     23 C23        -0.5711   -4.7697   -1.0139 C.3       1 UNK         0.0000 
     24 C24        -0.2937   -5.8191    0.1021 C.3       1 UNK         0.0000 
     25 C25         0.5222   -5.3691    1.3477 C.3       1 UNK         0.0000 
     26 N26        -0.2602   -4.6402    2.3699 N.am      1 UNK         0.0000 
     27 C27        -0.6360   -3.3598    2.2898 C.2       1 UNK         0.0000 
     28 O28        -0.2922   -2.6033    1.3606 O.co2     1 UNK         0.0000 
     29 C29        -1.5298   -2.7375    3.3551 C.3       1 UNK         0.0000 
     30 C30        -3.0424   -2.5676    2.9521 C.3       1 UNK         0.0000 
     31 C31        -3.3591   -1.7513    1.6973 C.2       1 UNK         0.0000 
     32 O32        -4.5580   -1.6220    1.4120 O.co2     1 UNK         0.0000 
     33 O33        -2.3884   -1.3178    1.0129 O.co2     1 UNK         0.0000 
     34 H34         3.3389    0.5005    1.0308 H         1 UNK         0.0000 
     35 H35         3.0032    2.1349    1.6188 H         1 UNK         0.0000 
     36 H36         3.3444    0.7964    2.7673 H         1 UNK         0.0000 
     37 H37         1.0010    3.4153    2.0478 H         1 UNK         0.0000 
     38 H38        -0.6045    3.2989    1.4103 H         1 UNK         0.0000 
     39 H39         1.0781    4.2759   -0.1738 H         1 UNK         0.0000 
     40 H40         1.8348    2.7022   -0.3457 H         1 UNK         0.0000 
     41 H41        -0.3762    1.8103   -1.2425 H         1 UNK         0.0000 
     42 H42        -1.0814    3.4066   -1.0995 H         1 UNK         0.0000 
     43 H43         1.3023    2.5929   -2.8757 H         1 UNK         0.0000 
     44 H44         0.8207    4.2424   -2.6574 H         1 UNK         0.0000 
     45 H45        -1.4403    3.7559   -3.6247 H         1 UNK         0.0000 
     46 H46        -0.1315    3.4577   -4.7634 H         1 UNK         0.0000 
     47 H47        -2.1151    1.6205   -3.8447 H         1 UNK         0.0000 
     48 H48        -0.4817   -1.4080   -4.9868 H         1 UNK         0.0000 
     49 H49        -1.8811   -0.5414   -5.4647 H         1 UNK         0.0000 
     50 H50        -2.8346   -0.6025   -3.2247 H         1 UNK         0.0000 
     51 H51        -2.3196   -2.1839   -3.5168 H         1 UNK         0.0000 
     52 H52        -0.2288   -3.3074   -3.4345 H         1 UNK         0.0000 
     53 H53         1.4353   -2.8445   -3.2126 H         1 UNK         0.0000 
     54 H54         1.5211   -4.1196   -1.0701 H         1 UNK         0.0000 
     55 H55         1.0732   -5.1518   -2.3791 H         1 UNK         0.0000 
     56 H56        -1.0963   -3.9078   -0.6101 H         1 UNK         0.0000 
     57 H57        -1.2787   -5.1974   -1.7398 H         1 UNK         0.0000 
     58 H58        -1.2580   -6.2301    0.4195 H         1 UNK         0.0000 
     59 H59         0.2359   -6.6532   -0.3684 H         1 UNK         0.0000 
     60 H60         1.3652   -4.7612    1.0363 H         1 UNK         0.0000 
     61 H61         0.9791   -6.2457    1.8134 H         1 UNK         0.0000 
     62 H62        -0.5173   -5.1687    3.1982 H         1 UNK         0.0000 
     63 H63        -1.4489   -3.3261    4.2622 H         1 UNK         0.0000 
     64 H64        -1.0997   -1.7730    3.6345 H         1 UNK         0.0000 
     65 H65        -3.5115   -3.5406    2.7861 H         1 UNK         0.0000 
     66 H66        -3.5913   -2.0775    3.7639 H         1 UNK         0.0000 
@<TRIPOS>BOND
     1    1    2 nc   
     2    1    6 nc   
     3    1   18 nc   
     4    1   20 nc   
     5    1   28 nc   
     6    1   33 nc   
     7    2    3 2    
     8    3    4 1    
     9    3    5 am   BACKBONE|DICT|INTERRES
    10    4   36 1    
    11    4   34 1    
    12    4   35 1    
    13    5    6 1    
    14    5    7 1    
    15    7   38 1    
    16    7   37 1    
    17    7    8 1    
    18    8    9 1    
    19    8   39 1    
    20    8   40 1    
    21    9   41 1    
    22    9   42 1    
    23    9   10 1    
    24   10   44 1    
    25   10   11 1    
    26   10   43 1    
    27   11   45 1    
    28   11   12 1    
    29   11   46 1    
    30   12   47 1    
    31   12   13 am   BACKBONE|DICT|INTERRES
    32   13   14 2    
    33   13   15 1    
    34   15   16 1    
    35   15   48 1    
    36   15   49 1    
    37   16   50 1    
    38   16   17 1    
    39   16   51 1    
    40   17   19 am   BACKBONE|DICT|INTERRES
    41   17   18 2    
    42   19   20 1    
    43   19   21 1    
    44   21   22 1    
    45   21   52 1    
    46   21   53 1    
    47   22   54 1    
    48   22   23 1    
    49   22   55 1    
    50   23   56 1    
    51   23   24 1    
    52   23   57 1    
    53   24   58 1    
    54   24   25 1    
    55   24   59 1    
    56   25   61 1    
    57   25   26 1    
    58   25   60 1    
    59   26   62 1    
    60   26   27 am   BACKBONE|DICT|INTERRES
    61   27   28 2    
    62   27   29 1    
    63   29   64 1    
    64   29   63 1    
    65   29   30 1    
    66   30   66 1    
    67   30   31 1    
    68   30   65 1    
    69   31   32 2    
    70   31   33 1    
@<TRIPOS>SUBSTRUCTURE
     1 UNK         1 GROUP             0       ****    0 ROOT    
@<TRIPOS>MOLECULE
103_c1
118   123    1
SMALL
USER_CHARGES


@<TRIPOS>ATOM
      1 Fe1        -0.0606   -2.5192   -1.3377 Fe        1 UNK         0.0000 
      2 O2         -2.5410    1.2864    0.6055 O.2       1 UNK         0.0000 
      3 C3         -2.3101    1.4867    1.7939 C.2       1 UNK         0.0000 
      4 C4         -2.1414    0.3285    2.7929 C.3       1 UNK         0.0000 
      5 C5         -2.2867   -1.1052    2.2282 C.3       1 UNK         0.0000 
      6 C6         -1.2205   -1.4869    1.1998 C.2       1 UNK         0.0000 
      7 O7         -1.4624   -1.4679   -0.0031 O.co2     1 UNK         0.0000 
      8 N8          0.0148   -1.9377    1.5070 N.am      1 UNK         0.0000 
      9 O9          0.8060   -2.2842    0.5004 O.co2     1 UNK         0.0000 
     10 C10         0.4930   -2.3234    2.8393 C.3       1 UNK         0.0000 
     11 C11         0.3849   -3.8509    3.0662 C.3       1 UNK         0.0000 
     12 C12         1.5013   -4.4253    3.9631 C.3       1 UNK         0.0000 
     13 C13         1.2842   -5.8947    4.4055 C.3       1 UNK         0.0000 
     14 C14         0.8663   -6.9071    3.3180 C.3       1 UNK         0.0000 
     15 N15         1.6831   -6.8425    2.0976 N.am      1 UNK         0.0000 
     16 C16         1.1962   -7.0403    0.8606 C.2       1 UNK         0.0000 
     17 O17         0.0238   -7.3472    0.6587 O.2       1 UNK         0.0000 
     18 C18         2.1676   -6.8668   -0.3227 C.3       1 UNK         0.0000 
     19 C19         1.5076   -6.6464   -1.7188 C.3       1 UNK         0.0000 
     20 C20         0.7290   -5.3313   -1.7899 C.2       1 UNK         0.0000 
     21 O21         1.2675   -4.2245   -1.6443 O.co2     1 UNK         0.0000 
     22 N22        -0.6131   -5.2824   -1.9216 N.am      1 UNK         0.0000 
     23 O23        -1.1852   -4.1363   -1.6228 O.co2     1 UNK         0.0000 
     24 C24        -1.4355   -6.1884   -2.7403 C.3       1 UNK         0.0000 
     25 C25        -2.8880   -6.3941   -2.2308 C.3       1 UNK         0.0000 
     26 C26        -3.9033   -6.9058   -3.2828 C.3       1 UNK         0.0000 
     27 C27        -4.0972   -6.0133   -4.5434 C.3       1 UNK         0.0000 
     28 C28        -4.6476   -4.5897   -4.2862 C.3       1 UNK         0.0000 
     29 N29        -4.6043   -3.7301   -5.4923 N.am      1 UNK         0.0000 
     30 C30        -3.7745   -2.7039   -5.7521 C.2       1 UNK         0.0000 
     31 O31        -3.8726   -2.0573   -6.7869 O.2       1 UNK         0.0000 
     32 C32        -2.7158   -2.3852   -4.7088 C.3       1 UNK         0.0000 
     33 C33        -1.6352   -1.2784   -4.9448 C.3       1 UNK         0.0000 
     34 C34        -0.7145   -1.3387   -3.7206 C.2       1 UNK         0.0000 
     35 O35        -1.0298   -1.9442   -2.7083 O.co2     1 UNK         0.0000 
     36 N36         0.5552   -0.8885   -3.5473 N.am      1 UNK         0.0000 
     37 O37         1.1500   -1.2648   -2.3911 O.co2     1 UNK         0.0000 
     38 C38         1.1514    0.2085   -4.3053 C.3       1 UNK         0.0000 
     39 C39         0.5429    1.5752   -3.9238 C.3       1 UNK         0.0000 
     40 C40         1.1529    2.7525   -4.6971 C.3       1 UNK         0.0000 
     41 C41         0.4915    4.0840   -4.3092 C.3       1 UNK         0.0000 
     42 C42         1.0338    5.2609   -5.1352 C.3       1 UNK         0.0000 
     43 N43         0.5147    6.5545   -4.6965 N.am      1 UNK         0.0000 
     44 C44         0.9102    7.1978   -3.5888 C.2       1 UNK         0.0000 
     45 O45         1.7303    6.7191   -2.8131 O.2       1 UNK         0.0000 
     46 C46         0.2750    8.5677   -3.3363 C.3       1 UNK         0.0000 
     47 C47         0.9848    9.4666   -2.2840 C.3       1 UNK         0.0000 
     48 C48         0.8761    9.0606   -0.7985 C.2       1 UNK         0.0000 
     49 O49         1.9217    8.8435   -0.1855 O.2       1 UNK         0.0000 
     50 N50        -0.3252    9.0452   -0.1599 N.am      1 UNK         0.0000 
     51 O51        -1.4907    9.3224   -0.9039 O.3       1 UNK         0.0000 
     52 C52        -0.5246    8.7649    1.2676 C.3       1 UNK         0.0000 
     53 C53        -0.2648    7.3064    1.6961 C.3       1 UNK         0.0000 
     54 C54        -1.3168    6.2998    1.1920 C.3       1 UNK         0.0000 
     55 C55        -1.1533    4.9167    1.8546 C.3       1 UNK         0.0000 
     56 C56        -2.3187    3.9624    1.5519 C.3       1 UNK         0.0000 
     57 N57        -2.2027    2.7154    2.3083 N.am      1 UNK         0.0000 
     58 H58        -1.2288    0.4198    3.3811 H         1 UNK         0.0000 
     59 H59        -2.9376    0.4572    3.5270 H         1 UNK         0.0000 
     60 H60        -3.2907   -1.2596    1.8333 H         1 UNK         0.0000 
     61 H61        -2.2360   -1.8321    3.0351 H         1 UNK         0.0000 
     62 H62        -0.0063   -1.7886    3.6436 H         1 UNK         0.0000 
     63 H63         1.5366   -2.0034    2.9014 H         1 UNK         0.0000 
     64 H64        -0.5961   -4.0837    3.4812 H         1 UNK         0.0000 
     65 H65         0.4155   -4.3685    2.1077 H         1 UNK         0.0000 
     66 H66         2.4572   -4.3411    3.4391 H         1 UNK         0.0000 
     67 H67         1.5982   -3.8019    4.8577 H         1 UNK         0.0000 
     68 H68         2.1900   -6.2584    4.8923 H         1 UNK         0.0000 
     69 H69         0.5191   -5.9083    5.1843 H         1 UNK         0.0000 
     70 H70         0.8988   -7.9277    3.7057 H         1 UNK         0.0000 
     71 H71        -0.1820   -6.7075    3.0852 H         1 UNK         0.0000 
     72 H72         2.6691   -6.6662    2.2105 H         1 UNK         0.0000 
     73 H73         2.7440   -7.7872   -0.3699 H         1 UNK         0.0000 
     74 H74         2.9231   -6.1083   -0.1219 H         1 UNK         0.0000 
     75 H75         0.9365   -7.5225   -2.0211 H         1 UNK         0.0000 
     76 H76         2.2828   -6.5690   -2.4775 H         1 UNK         0.0000 
     77 H77        -0.9800   -7.1603   -2.9255 H         1 UNK         0.0000 
     78 H78        -1.4687   -5.7315   -3.7318 H         1 UNK         0.0000 
     79 H79        -3.2828   -5.4774   -1.7974 H         1 UNK         0.0000 
     80 H80        -2.8517   -7.0909   -1.3923 H         1 UNK         0.0000 
     81 H81        -3.6039   -7.9093   -3.5961 H         1 UNK         0.0000 
     82 H82        -4.8698   -7.0397   -2.7878 H         1 UNK         0.0000 
     83 H83        -3.1601   -5.9544   -5.1006 H         1 UNK         0.0000 
     84 H84        -4.7938   -6.5239   -5.2121 H         1 UNK         0.0000 
     85 H85        -4.1037   -4.1518   -3.4485 H         1 UNK         0.0000 
     86 H86        -5.6684   -4.6462   -3.9002 H         1 UNK         0.0000 
     87 H87        -5.2894   -3.8904   -6.2116 H         1 UNK         0.0000 
     88 H88        -2.2208   -3.3483   -4.5593 H         1 UNK         0.0000 
     89 H89        -3.3081   -2.1192   -3.8301 H         1 UNK         0.0000 
     90 H90        -1.0475   -1.4774   -5.8409 H         1 UNK         0.0000 
     91 H91        -2.0774   -0.2830   -4.9658 H         1 UNK         0.0000 
     92 H92         2.2363    0.2353   -4.1422 H         1 UNK         0.0000 
     93 H93         1.0224    0.0359   -5.3710 H         1 UNK         0.0000 
     94 H94        -0.5340    1.5639   -4.1155 H         1 UNK         0.0000 
     95 H95         0.6601    1.7528   -2.8505 H         1 UNK         0.0000 
     96 H96         1.0506    2.5947   -5.7736 H         1 UNK         0.0000 
     97 H97         2.2257    2.8030   -4.4987 H         1 UNK         0.0000 
     98 H98         0.6519    4.2619   -3.2426 H         1 UNK         0.0000 
     99 H99        -0.5897    4.0127   -4.4431 H         1 UNK         0.0000 
    100 H100        2.1273    5.2638   -5.1034 H         1 UNK         0.0000 
    101 H101        0.7958    5.1122   -6.1907 H         1 UNK         0.0000 
    102 H102       -0.2015    6.9799   -5.2620 H         1 UNK         0.0000 
    103 H103        0.3575    9.0946   -4.2891 H         1 UNK         0.0000 
    104 H104       -0.8016    8.4942   -3.1853 H         1 UNK         0.0000 
    105 H105        2.0225    9.6379   -2.5677 H         1 UNK         0.0000 
    106 H106        0.5508   10.4647   -2.3344 H         1 UNK         0.0000 
    107 H107       -1.7456   10.2025   -0.6088 H         1 UNK         0.0000 
    108 H108       -1.5457    9.0328    1.5434 H         1 UNK         0.0000 
    109 H109        0.1167    9.4379    1.8386 H         1 UNK         0.0000 
    110 H110       -0.2615    7.2784    2.7862 H         1 UNK         0.0000 
    111 H111        0.7391    6.9944    1.4004 H         1 UNK         0.0000 
    112 H112       -1.2587    6.2114    0.1026 H         1 UNK         0.0000 
    113 H113       -2.3154    6.6840    1.4138 H         1 UNK         0.0000 
    114 H114       -0.2116    4.4639    1.5314 H         1 UNK         0.0000 
    115 H115       -1.0754    5.0460    2.9365 H         1 UNK         0.0000 
    116 H116       -3.2696    4.4342    1.8076 H         1 UNK         0.0000 
    117 H117       -2.3865    3.8070    0.4717 H         1 UNK         0.0000 
    118 H118       -2.0846    2.7908    3.3051 H         1 UNK         0.0000 
@<TRIPOS>BOND
     1    1    7 nc   
     2    1    9 nc   
     3    1   21 nc   
     4    1   23 nc   
     5    1   35 nc   
     6    1   37 nc   
     7    2    3 2    
     8    3   57 am   BACKBONE|DICT|INTERRES
     9    3    4 1    
    10    4   58 1    
    11    4   59 1    
    12    4    5 1    
    13    5   61 1    
    14    5    6 1    
    15    5   60 1    
    16    6    7 2    
    17    6    8 am   BACKBONE|DICT|INTERRES
    18    8   10 1    
    19    8    9 1    
    20   10   63 1    
    21   10   11 1    
    22   10   62 1    
    23   11   64 1    
    24   11   12 1    
    25   11   65 1    
    26   12   13 1    
    27   12   67 1    
    28   12   66 1    
    29   13   68 1    
    30   13   69 1    
    31   13   14 1    
    32   14   70 1    
    33   14   15 1    
    34   14   71 1    
    35   15   72 1    
    36   15   16 am   BACKBONE|DICT|INTERRES
    37   16   17 2    
    38   16   18 1    
    39   18   73 1    
    40   18   74 1    
    41   18   19 1    
    42   19   20 1    
    43   19   75 1    
    44   19   76 1    
    45   20   21 2    
    46   20   22 am   BACKBONE|DICT|INTERRES
    47   22   23 1    
    48   22   24 1    
    49   24   25 1    
    50   24   77 1    
    51   24   78 1    
    52   25   79 1    
    53   25   80 1    
    54   25   26 1    
    55   26   82 1    
    56   26   27 1    
    57   26   81 1    
    58   27   28 1    
    59   27   83 1    
    60   27   84 1    
    61   28   86 1    
    62   28   85 1    
    63   28   29 1    
    64   29   30 am   BACKBONE|DICT|INTERRES
    65   29   87 1    
    66   30   32 1    
    67   30   31 2    
    68   32   88 1    
    69   32   89 1    
    70   32   33 1    
    71   33   34 1    
    72   33   90 1    
    73   33   91 1    
    74   34   36 am   BACKBONE|DICT|INTERRES
    75   34   35 2    
    76   36   37 1    
    77   36   38 1    
    78   38   39 1    
    79   38   92 1    
    80   38   93 1    
    81   39   95 1    
    82   39   40 1    
    83   39   94 1    
    84   40   97 1    
    85   40   41 1    
    86   40   96 1    
    87   41   98 1    
    88   41   42 1    
    89   41   99 1    
    90   42  100 1    
    91   42   43 1    
    92   42  101 1    
    93   43   44 am   BACKBONE|DICT|INTERRES
    94   43  102 1    
    95   44   46 1    
    96   44   45 2    
    97   46  104 1    
    98   46   47 1    
    99   46  103 1    
   100   47   48 1    
   101   47  105 1    
   102   47  106 1    
   103   48   49 2    
   104   48   50 am   BACKBONE|DICT|INTERRES
   105   50   52 1    
   106   50   51 1    
   107   51  107 1    
   108   52  108 1    
   109   52   53 1    
   110   52  109 1    
   111   53  110 1    
   112   53   54 1    
   113   53  111 1    
   114   54  113 1    
   115   54   55 1    
   116   54  112 1    
   117   55  115 1    
   118   55   56 1    
   119   55  114 1    
   120   56  116 1    
   121   56   57 1    
   122   56  117 1    
   123   57  118 1    
@<TRIPOS>SUBSTRUCTURE
     1 UNK         1 GROUP             0       ****    0 ROOT    
@<TRIPOS>MOLECULE
103_c2
118   123    1
SMALL
USER_CHARGES


@<TRIPOS>ATOM
      1 Fe1         0.2015   -2.1851   -1.0699 Fe        1 UNK         0.0000 
      2 O2          3.7021   -6.5824   -3.2372 O.2       1 UNK         0.0000 
      3 C3          2.4835   -6.6747   -3.3176 C.2       1 UNK         0.0000 
      4 C4          1.6677   -7.1826   -2.1109 C.3       1 UNK         0.0000 
      5 C5          1.7742   -6.3594   -0.7937 C.3       1 UNK         0.0000 
      6 C6          0.8899   -5.0949   -0.7759 C.2       1 UNK         0.0000 
      7 O7          1.4312   -3.9828   -0.7228 O.co2     1 UNK         0.0000 
      8 N8         -0.4642   -5.1731   -0.8944 N.am      1 UNK         0.0000 
      9 O9         -1.2331   -4.1174   -1.2056 O.co2     1 UNK         0.0000 
     10 C10        -1.2348   -6.3004   -0.2980 C.3       1 UNK         0.0000 
     11 C11        -1.7983   -5.9214    1.0988 C.3       1 UNK         0.0000 
     12 C12        -2.8290   -6.9083    1.6782 C.3       1 UNK         0.0000 
     13 C13        -3.3028   -6.5672    3.1133 C.3       1 UNK         0.0000 
     14 C14        -3.8461   -5.1322    3.3259 C.3       1 UNK         0.0000 
     15 N15        -2.7931   -4.1591    3.6485 N.am      1 UNK         0.0000 
     16 C16        -2.6634   -2.9309    3.1238 C.2       1 UNK         0.0000 
     17 O17        -3.4382   -2.4754    2.2893 O.2       1 UNK         0.0000 
     18 C18        -1.4990   -2.0895    3.6715 C.3       1 UNK         0.0000 
     19 C19        -1.1282   -0.7775    2.9223 C.3       1 UNK         0.0000 
     20 C20        -0.3666   -1.0155    1.6032 C.2       1 UNK         0.0000 
     21 O21        -0.8977   -1.6923    0.7137 O.co2     1 UNK         0.0000 
     22 N22         0.8805   -0.5120    1.3707 N.am      1 UNK         0.0000 
     23 O23         1.5690   -0.7594    0.2610 O.co2     1 UNK         0.0000 
     24 C24         1.5583    0.4797    2.2144 C.3       1 UNK         0.0000 
     25 C25         0.9256    1.8738    2.0730 C.3       1 UNK         0.0000 
     26 C26         1.8103    2.9669    2.6761 C.3       1 UNK         0.0000 
     27 C27         0.9713    4.1386    3.1921 C.3       1 UNK         0.0000 
     28 C28         1.8199    5.2748    3.7922 C.3       1 UNK         0.0000 
     29 N29         2.0137    6.4023    2.8826 N.am      1 UNK         0.0000 
     30 C30         1.0628    7.3015    2.5985 C.2       1 UNK         0.0000 
     31 O31        -0.0843    7.2314    3.0335 O.2       1 UNK         0.0000 
     32 C32         1.4836    8.5224    1.7808 C.3       1 UNK         0.0000 
     33 C33         0.5586    8.8547    0.5798 C.3       1 UNK         0.0000 
     34 C34         0.8228    8.0667   -0.7215 C.2       1 UNK         0.0000 
     35 O35         1.7531    7.2590   -0.7560 O.2       1 UNK         0.0000 
     36 N36         0.0762    8.3576   -1.8227 N.am      1 UNK         0.0000 
     37 O37        -1.0907    9.1286   -1.6346 O.3       1 UNK         0.0000 
     38 C38         0.2101    7.7709   -3.1612 C.3       1 UNK         0.0000 
     39 C39        -0.8058    6.6486   -3.4701 C.3       1 UNK         0.0000 
     40 C40        -0.6438    5.3548   -2.6437 C.3       1 UNK         0.0000 
     41 C41         0.7363    4.6665   -2.7514 C.3       1 UNK         0.0000 
     42 C42         1.1880    4.2785   -4.1754 C.3       1 UNK         0.0000 
     43 N43         0.3178    3.2881   -4.8165 N.am      1 UNK         0.0000 
     44 C44         0.3312    1.9805   -4.5206 C.2       1 UNK         0.0000 
     45 O45         1.0911    1.5253   -3.6781 O.2       1 UNK         0.0000 
     46 C46        -0.6322    1.0631   -5.3011 C.3       1 UNK         0.0000 
     47 C47        -1.4929    0.0668   -4.4625 C.3       1 UNK         0.0000 
     48 C48        -0.7669   -0.8284   -3.4290 C.2       1 UNK         0.0000 
     49 O49        -1.2106   -0.9019   -2.2686 O.co2     1 UNK         0.0000 
     50 N50         0.4010   -1.4922   -3.6899 N.am      1 UNK         0.0000 
     51 O51         1.1416   -1.9933   -2.7111 O.co2     1 UNK         0.0000 
     52 C52         0.9566   -1.8244   -5.0281 C.3       1 UNK         0.0000 
     53 C53         1.6442   -3.2352   -5.0687 C.3       1 UNK         0.0000 
     54 C54         2.3935   -3.6656   -6.3314 C.3       1 UNK         0.0000 
     55 C55         3.2250   -4.9498   -6.0666 C.3       1 UNK         0.0000 
     56 C56         2.4304   -6.2569   -5.7983 C.3       1 UNK         0.0000 
     57 N57         1.8252   -6.4514   -4.4667 N.am      1 UNK         0.0000 
     58 H58         2.1292   -8.1496   -1.9111 H         1 UNK         0.0000 
     59 H59         0.6363   -7.4295   -2.3622 H         1 UNK         0.0000 
     60 H60         1.4611   -6.9794    0.0472 H         1 UNK         0.0000 
     61 H61         2.8190   -6.1300   -0.5713 H         1 UNK         0.0000 
     62 H62        -0.6947   -7.2504   -0.2156 H         1 UNK         0.0000 
     63 H63        -2.0629   -6.5369   -0.9736 H         1 UNK         0.0000 
     64 H64        -2.2769   -4.9480    1.0349 H         1 UNK         0.0000 
     65 H65        -0.9712   -5.8143    1.7970 H         1 UNK         0.0000 
     66 H66        -3.6976   -6.9476    1.0191 H         1 UNK         0.0000 
     67 H67        -2.4057   -7.9116    1.6813 H         1 UNK         0.0000 
     68 H68        -2.5003   -6.7666    3.8267 H         1 UNK         0.0000 
     69 H69        -4.0950   -7.2745    3.3787 H         1 UNK         0.0000 
     70 H70        -4.4216   -4.8359    2.4428 H         1 UNK         0.0000 
     71 H71        -4.5758   -5.1327    4.1391 H         1 UNK         0.0000 
     72 H72        -2.1661   -4.4156    4.3933 H         1 UNK         0.0000 
     73 H73        -1.8588   -1.7786    4.6482 H         1 UNK         0.0000 
     74 H74        -0.6099   -2.6807    3.8744 H         1 UNK         0.0000 
     75 H75        -0.5054   -0.1930    3.5998 H         1 UNK         0.0000 
     76 H76        -1.9979   -0.1381    2.7634 H         1 UNK         0.0000 
     77 H77         1.6164    0.1668    3.2594 H         1 UNK         0.0000 
     78 H78         2.6171    0.5740    1.9313 H         1 UNK         0.0000 
     79 H79         0.7412    2.1016    1.0243 H         1 UNK         0.0000 
     80 H80        -0.0494    1.8622    2.5581 H         1 UNK         0.0000 
     81 H81         2.3988    2.5629    3.5009 H         1 UNK         0.0000 
     82 H82         2.5253    3.3033    1.9222 H         1 UNK         0.0000 
     83 H83         0.3318    4.5163    2.3909 H         1 UNK         0.0000 
     84 H84         0.2870    3.7673    3.9571 H         1 UNK         0.0000 
     85 H85         1.3324    5.6353    4.7017 H         1 UNK         0.0000 
     86 H86         2.7849    4.8975    4.1349 H         1 UNK         0.0000 
     87 H87         2.9215    6.5295    2.4664 H         1 UNK         0.0000 
     88 H88         2.5410    8.5311    1.5127 H         1 UNK         0.0000 
     89 H89         1.3762    9.3360    2.4980 H         1 UNK         0.0000 
     90 H90        -0.4926    8.8289    0.8715 H         1 UNK         0.0000 
     91 H91         0.7655    9.8910    0.3107 H         1 UNK         0.0000 
     92 H92        -0.8965    9.9573   -2.0809 H         1 UNK         0.0000 
     93 H93         0.0878    8.5664   -3.8974 H         1 UNK         0.0000 
     94 H94         1.2292    7.4046   -3.3023 H         1 UNK         0.0000 
     95 H95        -0.7338    6.3968   -4.5284 H         1 UNK         0.0000 
     96 H96        -1.8174    7.0383   -3.3422 H         1 UNK         0.0000 
     97 H97        -1.4190    4.6462   -2.9402 H         1 UNK         0.0000 
     98 H98        -0.8420    5.5754   -1.5930 H         1 UNK         0.0000 
     99 H99         1.5015    5.3042   -2.3123 H         1 UNK         0.0000 
    100 H100        0.7357    3.7732   -2.1239 H         1 UNK         0.0000 
    101 H101        1.1878    5.1643   -4.8134 H         1 UNK         0.0000 
    102 H102        2.2246    3.9315   -4.1573 H         1 UNK         0.0000 
    103 H103       -0.3388    3.6184   -5.4980 H         1 UNK         0.0000 
    104 H104       -0.0867    0.5414   -6.0851 H         1 UNK         0.0000 
    105 H105       -1.3222    1.6943   -5.8595 H         1 UNK         0.0000 
    106 H106       -2.2443    0.6621   -3.9304 H         1 UNK         0.0000 
    107 H107       -2.0927   -0.5610   -5.1257 H         1 UNK         0.0000 
    108 H108        1.7097   -1.0651   -5.2662 H         1 UNK         0.0000 
    109 H109        0.2043   -1.7449   -5.8226 H         1 UNK         0.0000 
    110 H110        2.4126   -3.2660   -4.2945 H         1 UNK         0.0000 
    111 H111        0.9005   -3.9821   -4.8031 H         1 UNK         0.0000 
    112 H112        3.0800   -2.8683   -6.6216 H         1 UNK         0.0000 
    113 H113        1.7104   -3.8091   -7.1691 H         1 UNK         0.0000 
    114 H114        3.9315   -4.7852   -5.2505 H         1 UNK         0.0000 
    115 H115        3.8579   -5.1237   -6.9379 H         1 UNK         0.0000 
    116 H116        3.0558   -7.1216   -6.0360 H         1 UNK         0.0000 
    117 H117        1.6130   -6.3020   -6.5218 H         1 UNK         0.0000 
    118 H118        0.8207   -6.4387   -4.4247 H         1 UNK         0.0000 
@<TRIPOS>BOND
     1    1    7 nc   
     2    1    9 nc   
     3    1   21 nc   
     4    1   23 nc   
     5    1   49 nc   
     6    1   51 nc   
     7    2    3 2    
     8    3    4 1    
     9    3   57 am   BACKBONE|DICT|INTERRES
    10    4   58 1    
    11    4    5 1    
    12    4   59 1    
    13    5   61 1    
    14    5   60 1    
    15    5    6 1    
    16    6    7 2    
    17    6    8 am   BACKBONE|DICT|INTERRES
    18    8   10 1    
    19    8    9 1    
    20   10   62 1    
    21   10   11 1    
    22   10   63 1    
    23   11   12 1    
    24   11   65 1    
    25   11   64 1    
    26   12   67 1    
    27   12   13 1    
    28   12   66 1    
    29   13   14 1    
    30   13   69 1    
    31   13   68 1    
    32   14   15 1    
    33   14   71 1    
    34   14   70 1    
    35   15   72 1    
    36   15   16 am   BACKBONE|DICT|INTERRES
    37   16   18 1    
    38   16   17 2    
    39   18   74 1    
    40   18   73 1    
    41   18   19 1    
    42   19   75 1    
    43   19   20 1    
    44   19   76 1    
    45   20   21 2    
    46   20   22 am   BACKBONE|DICT|INTERRES
    47   22   24 1    
    48   22   23 1    
    49   24   25 1    
    50   24   77 1    
    51   24   78 1    
    52   25   26 1    
    53   25   80 1    
    54   25   79 1    
    55   26   27 1    
    56   26   81 1    
    57   26   82 1    
    58   27   28 1    
    59   27   84 1    
    60   27   83 1    
    61   28   86 1    
    62   28   85 1    
    63   28   29 1    
    64   29   30 am   BACKBONE|DICT|INTERRES
    65   29   87 1    
    66   30   31 2    
    67   30   32 1    
    68   32   89 1    
    69   32   33 1    
    70   32   88 1    
    71   33   90 1    
    72   33   34 1    
    73   33   91 1    
    74   34   35 2    
    75   34   36 am   BACKBONE|DICT|INTERRES
    76   36   37 1    
    77   36   38 1    
    78   37   92 1    
    79   38   39 1    
    80   38   93 1    
    81   38   94 1    
    82   39   96 1    
    83   39   40 1    
    84   39   95 1    
    85   40   98 1    
    86   40   41 1    
    87   40   97 1    
    88   41   99 1    
    89   41  100 1    
    90   41   42 1    
    91   42   43 1    
    92   42  101 1    
    93   42  102 1    
    94   43   44 am   BACKBONE|DICT|INTERRES
    95   43  103 1    
    96   44   45 2    
    97   44   46 1    
    98   46   47 1    
    99   46  104 1    
   100   46  105 1    
   101   47  106 1    
   102   47   48 1    
   103   47  107 1    
   104   48   49 2    
   105   48   50 am   BACKBONE|DICT|INTERRES
   106   50   51 1    
   107   50   52 1    
   108   52   53 1    
   109   52  108 1    
   110   52  109 1    
   111   53  111 1    
   112   53  110 1    
   113   53   54 1    
   114   54   55 1    
   115   54  112 1    
   116   54  113 1    
   117   55   56 1    
   118   55  114 1    
   119   55  115 1    
   120   56   57 1    
   121   56  116 1    
   122   56  117 1    
   123   57  118 1    
@<TRIPOS>SUBSTRUCTURE
     1 UNK         1 GROUP             0       ****    0 ROOT    
@<TRIPOS>MOLECULE
103_c3
118   123    1
SMALL
USER_CHARGES


@<TRIPOS>ATOM
      1 Fe1         0.0847    3.5762   -0.2066 Fe        1 UNK         0.0000 
      2 O2          2.1133    6.2090    4.9680 O.2       1 UNK         0.0000 
      3 C3          1.0473    6.4338    4.4061 C.2       1 UNK         0.0000 
      4 C4          0.0382    5.2978    4.1618 C.3       1 UNK         0.0000 
      5 C5          0.6349    3.8540    3.9882 C.3       1 UNK         0.0000 
      6 C6          0.1862    3.1480    2.6926 C.2       1 UNK         0.0000 
      7 O7          0.9551    3.0946    1.7199 O.co2     1 UNK         0.0000 
      8 N8         -1.1016    2.7599    2.4986 N.am      1 UNK         0.0000 
      9 O9         -1.6068    2.4985    1.2827 O.co2     1 UNK         0.0000 
     10 C10        -2.0138    2.3946    3.6081 C.3       1 UNK         0.0000 
     11 C11        -2.4768    0.9177    3.5403 C.3       1 UNK         0.0000 
     12 C12        -1.3204   -0.0981    3.5758 C.3       1 UNK         0.0000 
     13 C13        -1.7761   -1.5636    3.4502 C.3       1 UNK         0.0000 
     14 C14        -0.5875   -2.5371    3.4801 C.3       1 UNK         0.0000 
     15 N15        -0.9881   -3.9404    3.4332 N.am      1 UNK         0.0000 
     16 C16        -0.1119   -4.9492    3.4820 C.2       1 UNK         0.0000 
     17 O17         1.0998   -4.7716    3.5843 O.2       1 UNK         0.0000 
     18 C18        -0.6828   -6.3647    3.3963 C.3       1 UNK         0.0000 
     19 C19        -0.0473   -7.2377    2.2830 C.3       1 UNK         0.0000 
     20 C20        -0.4605   -6.9142    0.8266 C.2       1 UNK         0.0000 
     21 O21        -1.1807   -5.9381    0.5965 O.2       1 UNK         0.0000 
     22 N22        -0.0699   -7.7690   -0.1567 N.am      1 UNK         0.0000 
     23 O23         0.8774   -8.7632    0.1755 O.3       1 UNK         0.0000 
     24 C24        -0.4470   -7.7282   -1.5736 C.3       1 UNK         0.0000 
     25 C25         0.7134   -7.3837   -2.5357 C.3       1 UNK         0.0000 
     26 C26         0.8936   -5.8821   -2.8379 C.3       1 UNK         0.0000 
     27 C27        -0.2563   -5.3017   -3.6923 C.3       1 UNK         0.0000 
     28 C28         0.1360   -4.1033   -4.5696 C.3       1 UNK         0.0000 
     29 N29         0.3188   -2.8673   -3.8128 N.am      1 UNK         0.0000 
     30 C30        -0.3738   -1.7455   -4.0367 C.2       1 UNK         0.0000 
     31 O31        -1.2701   -1.6670   -4.8736 O.2       1 UNK         0.0000 
     32 C32         0.0226   -0.5426   -3.1938 C.3       1 UNK         0.0000 
     33 C33        -0.6347    0.7913   -3.6454 C.3       1 UNK         0.0000 
     34 C34        -0.1161    1.8916   -2.7145 C.2       1 UNK         0.0000 
     35 O35        -0.2968    1.7565   -1.4970 O.co2     1 UNK         0.0000 
     36 N36         0.5932    2.9721   -3.1417 N.am      1 UNK         0.0000 
     37 O37         1.2880    3.7233   -2.2851 O.co2     1 UNK         0.0000 
     38 C38         0.5631    3.5375   -4.5091 C.3       1 UNK         0.0000 
     39 C39         0.0957    5.0187   -4.5720 C.3       1 UNK         0.0000 
     40 C40         0.1597    5.6415   -5.9799 C.3       1 UNK         0.0000 
     41 C41        -0.0491    7.1746   -6.0068 C.3       1 UNK         0.0000 
     42 C42        -1.4080    7.6728   -5.4666 C.3       1 UNK         0.0000 
     43 N43        -1.4026    7.9480   -4.0248 N.am      1 UNK         0.0000 
     44 C44        -2.3237    7.5364   -3.1415 C.2       1 UNK         0.0000 
     45 O45        -3.2384    6.7777   -3.4351 O.2       1 UNK         0.0000 
     46 C46        -2.2211    8.1100   -1.7224 C.3       1 UNK         0.0000 
     47 C47        -2.4170    7.0986   -0.5591 C.3       1 UNK         0.0000 
     48 C48        -1.3181    6.0204   -0.4037 C.2       1 UNK         0.0000 
     49 O49        -1.5647    4.8394   -0.7102 O.co2     1 UNK         0.0000 
     50 N50        -0.0698    6.2940    0.0741 N.am      1 UNK         0.0000 
     51 O51         0.8600    5.3476    0.2054 O.co2     1 UNK         0.0000 
     52 C52         0.4203    7.6527    0.4629 C.3       1 UNK         0.0000 
     53 C53         1.8718    7.6775    1.0542 C.3       1 UNK         0.0000 
     54 C54         2.4263    9.0005    1.5921 C.3       1 UNK         0.0000 
     55 C55         1.6098    9.6580    2.7222 C.3       1 UNK         0.0000 
     56 C56         1.5247    8.8769    4.0586 C.3       1 UNK         0.0000 
     57 N57         0.6988    7.6617    3.9859 N.am      1 UNK         0.0000 
     58 H58        -0.5381    5.5740    3.2764 H         1 UNK         0.0000 
     59 H59        -0.7139    5.3000    4.9504 H         1 UNK         0.0000 
     60 H60         1.7247    3.9151    3.9511 H         1 UNK         0.0000 
     61 H61         0.4860    3.2458    4.8801 H         1 UNK         0.0000 
     62 H62        -2.8797    3.0595    3.5771 H         1 UNK         0.0000 
     63 H63        -1.5664    2.5549    4.5913 H         1 UNK         0.0000 
     64 H64        -3.0572    0.7712    2.6321 H         1 UNK         0.0000 
     65 H65        -3.1689    0.7178    4.3528 H         1 UNK         0.0000 
     66 H66        -0.7495    0.0300    4.4965 H         1 UNK         0.0000 
     67 H67        -0.6250    0.1158    2.7602 H         1 UNK         0.0000 
     68 H68        -2.4692   -1.8020    4.2589 H         1 UNK         0.0000 
     69 H69        -2.3271   -1.6943    2.5158 H         1 UNK         0.0000 
     70 H70         0.0897   -2.3141    2.6511 H         1 UNK         0.0000 
     71 H71         0.0065   -2.3538    4.3792 H         1 UNK         0.0000 
     72 H72        -1.9506   -4.1598    3.2348 H         1 UNK         0.0000 
     73 H73        -1.7728   -6.4040    3.3706 H         1 UNK         0.0000 
     74 H74        -0.4281   -6.8146    4.3563 H         1 UNK         0.0000 
     75 H75         1.0358   -7.2995    2.4007 H         1 UNK         0.0000 
     76 H76        -0.4014   -8.2536    2.4600 H         1 UNK         0.0000 
     77 H77         0.3985   -9.5886    0.0617 H         1 UNK         0.0000 
     78 H78        -0.8289   -8.7177   -1.8286 H         1 UNK         0.0000 
     79 H79        -1.2956   -7.0615   -1.7408 H         1 UNK         0.0000 
     80 H80         1.6523   -7.7935   -2.1591 H         1 UNK         0.0000 
     81 H81         0.5398   -7.8978   -3.4829 H         1 UNK         0.0000 
     82 H82         1.8379   -5.7640   -3.3726 H         1 UNK         0.0000 
     83 H83         1.0063   -5.3177   -1.9104 H         1 UNK         0.0000 
     84 H84        -1.1071   -5.0403   -3.0603 H         1 UNK         0.0000 
     85 H85        -0.6280   -6.0717   -4.3687 H         1 UNK         0.0000 
     86 H86         1.0779   -4.3083   -5.0826 H         1 UNK         0.0000 
     87 H87        -0.5957   -3.9996   -5.3762 H         1 UNK         0.0000 
     88 H88         1.0374   -2.8557   -3.1048 H         1 UNK         0.0000 
     89 H89         1.1090   -0.4589   -3.2562 H         1 UNK         0.0000 
     90 H90        -0.2655   -0.7938   -2.1739 H         1 UNK         0.0000 
     91 H91        -0.3980    0.9977   -4.6882 H         1 UNK         0.0000 
     92 H92        -1.7202    0.7655   -3.5114 H         1 UNK         0.0000 
     93 H93         1.5726    3.4686   -4.9191 H         1 UNK         0.0000 
     94 H94        -0.0429    2.9800   -5.2242 H         1 UNK         0.0000 
     95 H95         0.7102    5.6250   -3.9085 H         1 UNK         0.0000 
     96 H96        -0.9262    5.0873   -4.2024 H         1 UNK         0.0000 
     97 H97        -0.5749    5.1632   -6.6304 H         1 UNK         0.0000 
     98 H98         1.1343    5.4297   -6.4229 H         1 UNK         0.0000 
     99 H99         0.0421    7.5077   -7.0446 H         1 UNK         0.0000 
    100 H100        0.7692    7.6707   -5.4794 H         1 UNK         0.0000 
    101 H101       -2.1928    6.9659   -5.7510 H         1 UNK         0.0000 
    102 H102       -1.6829    8.5988   -5.9772 H         1 UNK         0.0000 
    103 H103       -0.6555    8.5256   -3.6805 H         1 UNK         0.0000 
    104 H104       -1.3632    8.7617   -1.5784 H         1 UNK         0.0000 
    105 H105       -3.0595    8.8065   -1.6754 H         1 UNK         0.0000 
    106 H106       -2.4913    7.6471    0.3804 H         1 UNK         0.0000 
    107 H107       -3.4087    6.6440   -0.6419 H         1 UNK         0.0000 
    108 H108       -0.2806    8.1097    1.1711 H         1 UNK         0.0000 
    109 H109        0.4226    8.3153   -0.4076 H         1 UNK         0.0000 
    110 H110        2.5534    7.3304    0.2796 H         1 UNK         0.0000 
    111 H111        1.9632    6.9366    1.8410 H         1 UNK         0.0000 
    112 H112        2.5501    9.6945    0.7626 H         1 UNK         0.0000 
    113 H113        3.4379    8.8068    1.9571 H         1 UNK         0.0000 
    114 H114        0.6104    9.9033    2.3657 H         1 UNK         0.0000 
    115 H115        2.0791   10.6209    2.9314 H         1 UNK         0.0000 
    116 H116        1.1363    9.5305    4.8434 H         1 UNK         0.0000 
    117 H117        2.5434    8.6253    4.3695 H         1 UNK         0.0000 
    118 H118       -0.2146    7.7672    3.5822 H         1 UNK         0.0000 
@<TRIPOS>BOND
     1    1    7 nc   
     2    1    9 nc   
     3    1   35 nc   
     4    1   37 nc   
     5    1   49 nc   
     6    1   51 nc   
     7    2    3 2    
     8    3    4 1    
     9    3   57 am   BACKBONE|DICT|INTERRES
    10    4   59 1    
    11    4    5 1    
    12    4   58 1    
    13    5   61 1    
    14    5    6 1    
    15    5   60 1    
    16    6    7 2    
    17    6    8 am   BACKBONE|DICT|INTERRES
    18    8   10 1    
    19    8    9 1    
    20   10   63 1    
    21   10   11 1    
    22   10   62 1    
    23   11   12 1    
    24   11   65 1    
    25   11   64 1    
    26   12   66 1    
    27   12   13 1    
    28   12   67 1    
    29   13   14 1    
    30   13   68 1    
    31   13   69 1    
    32   14   71 1    
    33   14   15 1    
    34   14   70 1    
    35   15   16 am   BACKBONE|DICT|INTERRES
    36   15   72 1    
    37   16   17 2    
    38   16   18 1    
    39   18   74 1    
    40   18   19 1    
    41   18   73 1    
    42   19   75 1    
    43   19   76 1    
    44   19   20 1    
    45   20   21 2    
    46   20   22 am   BACKBONE|DICT|INTERRES
    47   22   23 1    
    48   22   24 1    
    49   23   77 1    
    50   24   25 1    
    51   24   78 1    
    52   24   79 1    
    53   25   80 1    
    54   25   26 1    
    55   25   81 1    
    56   26   83 1    
    57   26   27 1    
    58   26   82 1    
    59   27   84 1    
    60   27   28 1    
    61   27   85 1    
    62   28   29 1    
    63   28   86 1    
    64   28   87 1    
    65   29   88 1    
    66   29   30 am   BACKBONE|DICT|INTERRES
    67   30   32 1    
    68   30   31 2    
    69   32   90 1    
    70   32   33 1    
    71   32   89 1    
    72   33   92 1    
    73   33   34 1    
    74   33   91 1    
    75   34   35 2    
    76   34   36 am   BACKBONE|DICT|INTERRES
    77   36   37 1    
    78   36   38 1    
    79   38   39 1    
    80   38   93 1    
    81   38   94 1    
    82   39   96 1    
    83   39   95 1    
    84   39   40 1    
    85   40   41 1    
    86   40   97 1    
    87   40   98 1    
    88   41  100 1    
    89   41   42 1    
    90   41   99 1    
    91   42   43 1    
    92   42  101 1    
    93   42  102 1    
    94   43  103 1    
    95   43   44 am   BACKBONE|DICT|INTERRES
    96   44   46 1    
    97   44   45 2    
    98   46  105 1    
    99   46  104 1    
   100   46   47 1    
   101   47   48 1    
   102   47  106 1    
   103   47  107 1    
   104   48   49 2    
   105   48   50 am   BACKBONE|DICT|INTERRES
   106   50   52 1    
   107   50   51 1    
   108   52   53 1    
   109   52  108 1    
   110   52  109 1    
   111   53   54 1    
   112   53  111 1    
   113   53  110 1    
   114   54  113 1    
   115   54   55 1    
   116   54  112 1    
   117   55  115 1    
   118   55   56 1    
   119   55  114 1    
   120   56  117 1    
   121   56  116 1    
   122   56   57 1    
   123   57  118 1    
@<TRIPOS>SUBSTRUCTURE
     1 UNK         1 GROUP             0       ****    0 ROOT    
@<TRIPOS>MOLECULE
103_c4
118   123    1
SMALL
USER_CHARGES


@<TRIPOS>ATOM
      1 Fe1         0.2681   -2.5111    0.8857 Fe        1 UNK         0.0000 
      2 O2          0.6247    6.7688    5.0886 O.2       1 UNK         0.0000 
      3 C3          1.0986    6.3555    4.0325 C.2       1 UNK         0.0000 
      4 C4          1.6637    7.3362    3.0022 C.3       1 UNK         0.0000 
      5 C5          0.6531    8.3833    2.4702 C.3       1 UNK         0.0000 
      6 C6         -0.4196    7.8597    1.4766 C.2       1 UNK         0.0000 
      7 O7         -0.8932    6.7339    1.6518 O.2       1 UNK         0.0000 
      8 N8         -0.8642    8.6621    0.4672 N.am      1 UNK         0.0000 
      9 O9         -0.0940    9.7963    0.1300 O.3       1 UNK         0.0000 
     10 C10        -1.9432    8.3591   -0.4844 C.3       1 UNK         0.0000 
     11 C11        -1.4591    7.9701   -1.8975 C.3       1 UNK         0.0000 
     12 C12        -0.7125    6.6275   -1.9985 C.3       1 UNK         0.0000 
     13 C13        -1.6050    5.3945   -1.7587 C.3       1 UNK         0.0000 
     14 C14        -0.8759    4.0830   -2.0857 C.3       1 UNK         0.0000 
     15 N15        -1.7491    2.9126   -2.0000 N.am      1 UNK         0.0000 
     16 C16        -1.5197    1.7676   -2.6543 C.2       1 UNK         0.0000 
     17 O17        -0.5486    1.6064   -3.3896 O.2       1 UNK         0.0000 
     18 C18        -2.5318    0.6379   -2.4456 C.3       1 UNK         0.0000 
     19 C19        -1.9682   -0.7843   -2.7062 C.3       1 UNK         0.0000 
     20 C20        -0.9196   -1.2365   -1.6636 C.2       1 UNK         0.0000 
     21 O21        -1.2379   -1.1413   -0.4683 O.co2     1 UNK         0.0000 
     22 N22         0.2976   -1.7555   -2.0096 N.am      1 UNK         0.0000 
     23 O23         1.2105   -2.2258   -1.1457 O.co2     1 UNK         0.0000 
     24 C24         0.7298   -1.9277   -3.4053 C.3       1 UNK         0.0000 
     25 C25         0.4097   -3.3524   -3.8999 C.3       1 UNK         0.0000 
     26 C26         1.4598   -3.9238   -4.8596 C.3       1 UNK         0.0000 
     27 C27         1.0800   -5.3000   -5.4468 C.3       1 UNK         0.0000 
     28 C28         0.6539   -6.3927   -4.4367 C.3       1 UNK         0.0000 
     29 N29         1.5435   -6.4978   -3.2738 N.am      1 UNK         0.0000 
     30 C30         1.1475   -6.8840   -2.0500 C.2       1 UNK         0.0000 
     31 O31         0.0011   -7.2510   -1.8141 O.2       1 UNK         0.0000 
     32 C32         2.2009   -6.8389   -0.9341 C.3       1 UNK         0.0000 
     33 C33         1.6368   -6.8405    0.5180 C.3       1 UNK         0.0000 
     34 C34         0.9224   -5.5142    0.8612 C.2       1 UNK         0.0000 
     35 O35         1.6195   -4.4983    0.9898 O.co2     1 UNK         0.0000 
     36 N36        -0.4403   -5.4353    0.9721 N.am      1 UNK         0.0000 
     37 O37        -1.1367   -4.2953    1.0779 O.co2     1 UNK         0.0000 
     38 C38        -1.2559   -6.6051    1.3594 C.3       1 UNK         0.0000 
     39 C39        -1.2040   -6.8058    2.8967 C.3       1 UNK         0.0000 
     40 C40        -2.5678   -7.0461    3.5572 C.3       1 UNK         0.0000 
     41 C41        -2.4987   -7.1821    5.0947 C.3       1 UNK         0.0000 
     42 C42        -1.8144   -6.0316    5.8764 C.3       1 UNK         0.0000 
     43 N43        -2.2610   -4.6772    5.5075 N.am      1 UNK         0.0000 
     44 C44        -1.4382   -3.6300    5.2972 C.2       1 UNK         0.0000 
     45 O45        -0.2177   -3.7351    5.3275 O.2       1 UNK         0.0000 
     46 C46        -2.0832   -2.2595    5.0173 C.3       1 UNK         0.0000 
     47 C47        -1.0919   -1.0761    4.7268 C.3       1 UNK         0.0000 
     48 C48        -0.3558   -1.2216    3.3780 C.2       1 UNK         0.0000 
     49 O49        -0.9369   -1.8066    2.4622 O.co2     1 UNK         0.0000 
     50 N50         0.9339   -0.8247    3.1689 N.am      1 UNK         0.0000 
     51 O51         1.6764   -1.2252    2.1252 O.co2     1 UNK         0.0000 
     52 C52         1.5997    0.2376    3.9542 C.3       1 UNK         0.0000 
     53 C53         1.9798    1.4675    3.0803 C.3       1 UNK         0.0000 
     54 C54         0.7751    2.2526    2.5195 C.3       1 UNK         0.0000 
     55 C55        -0.1031    2.9312    3.5947 C.3       1 UNK         0.0000 
     56 C56         0.6326    3.9520    4.4884 C.3       1 UNK         0.0000 
     57 N57         1.1654    5.0601    3.7023 N.am      1 UNK         0.0000 
     58 H58         2.4333    7.8833    3.5486 H         1 UNK         0.0000 
     59 H59         2.2019    6.8532    2.1866 H         1 UNK         0.0000 
     60 H60         0.1905    8.9222    3.2985 H         1 UNK         0.0000 
     61 H61         1.2664    9.1276    1.9653 H         1 UNK         0.0000 
     62 H62        -0.6766   10.5377    0.3156 H         1 UNK         0.0000 
     63 H63        -2.5809    9.2394   -0.5716 H         1 UNK         0.0000 
     64 H64        -2.5873    7.5749   -0.0808 H         1 UNK         0.0000 
     65 H65        -0.8279    8.7700   -2.2883 H         1 UNK         0.0000 
     66 H66        -2.3199    7.9347   -2.5676 H         1 UNK         0.0000 
     67 H67        -0.2807    6.5621   -2.9990 H         1 UNK         0.0000 
     68 H68         0.1328    6.6186   -1.3083 H         1 UNK         0.0000 
     69 H69        -1.9364    5.3772   -0.7192 H         1 UNK         0.0000 
     70 H70        -2.5024    5.4739   -2.3748 H         1 UNK         0.0000 
     71 H71        -0.0085    3.9628   -1.4319 H         1 UNK         0.0000 
     72 H72        -0.4563    4.1629   -3.0934 H         1 UNK         0.0000 
     73 H73        -2.5545    2.9777   -1.3995 H         1 UNK         0.0000 
     74 H74        -3.0213    0.6862   -1.4764 H         1 UNK         0.0000 
     75 H75        -3.3364    0.8170   -3.1562 H         1 UNK         0.0000 
     76 H76        -1.6956   -0.9099   -3.7507 H         1 UNK         0.0000 
     77 H77        -2.8025   -1.4799   -2.6058 H         1 UNK         0.0000 
     78 H78         0.3491   -1.1741   -4.1013 H         1 UNK         0.0000 
     79 H79         1.8117   -1.7654   -3.4491 H         1 UNK         0.0000 
     80 H80         0.3376   -4.0223   -3.0459 H         1 UNK         0.0000 
     81 H81        -0.5782   -3.3459   -4.3561 H         1 UNK         0.0000 
     82 H82         1.6327   -3.2211   -5.6745 H         1 UNK         0.0000 
     83 H83         2.4109   -4.0113   -4.3286 H         1 UNK         0.0000 
     84 H84         1.9230   -5.6641   -6.0393 H         1 UNK         0.0000 
     85 H85         0.2658   -5.1622   -6.1618 H         1 UNK         0.0000 
     86 H86        -0.3598   -6.1649   -4.0898 H         1 UNK         0.0000 
     87 H87         0.6178   -7.3624   -4.9366 H         1 UNK         0.0000 
     88 H88         2.5052   -6.2361   -3.4051 H         1 UNK         0.0000 
     89 H89         2.9096   -6.0272   -1.0782 H         1 UNK         0.0000 
     90 H90         2.7962   -7.7394   -1.0501 H         1 UNK         0.0000 
     91 H91         1.1059   -7.7647    0.7503 H         1 UNK         0.0000 
     92 H92         2.4957   -6.8900    1.1900 H         1 UNK         0.0000 
     93 H93        -2.2911   -6.4463    1.0384 H         1 UNK         0.0000 
     94 H94        -0.9759   -7.5233    0.8373 H         1 UNK         0.0000 
     95 H95        -0.5087   -7.6092    3.1296 H         1 UNK         0.0000 
     96 H96        -0.7775   -5.9191    3.3607 H         1 UNK         0.0000 
     97 H97        -3.2420   -6.2267    3.3011 H         1 UNK         0.0000 
     98 H98        -3.0060   -7.9499    3.1338 H         1 UNK         0.0000 
     99 H99        -1.9699   -8.1078    5.3343 H         1 UNK         0.0000 
    100 H100       -3.5128   -7.3238    5.4768 H         1 UNK         0.0000 
    101 H101       -2.0048   -6.1645    6.9436 H         1 UNK         0.0000 
    102 H102       -0.7329   -6.1249    5.7412 H         1 UNK         0.0000 
    103 H103       -3.2525   -4.5396    5.4118 H         1 UNK         0.0000 
    104 H104       -2.8460   -2.3359    4.2469 H         1 UNK         0.0000 
    105 H105       -2.6333   -2.0058    5.9211 H         1 UNK         0.0000 
    106 H106       -0.4390   -0.9095    5.5843 H         1 UNK         0.0000 
    107 H107       -1.6769   -0.1596    4.6462 H         1 UNK         0.0000 
    108 H108        1.0141    0.5900    4.8106 H         1 UNK         0.0000 
    109 H109        2.5099   -0.1972    4.3756 H         1 UNK         0.0000 
    110 H110        2.6026    1.1496    2.2470 H         1 UNK         0.0000 
    111 H111        2.6228    2.1324    3.6523 H         1 UNK         0.0000 
    112 H112        1.1293    3.0037    1.8100 H         1 UNK         0.0000 
    113 H113        0.1506    1.5830    1.9208 H         1 UNK         0.0000 
    114 H114       -0.9413    3.4315    3.1063 H         1 UNK         0.0000 
    115 H115       -0.5600    2.1688    4.2255 H         1 UNK         0.0000 
    116 H116        1.4808    3.4839    4.9895 H         1 UNK         0.0000 
    117 H117       -0.0303    4.2896    5.2879 H         1 UNK         0.0000 
    118 H118        1.5811    4.8245    2.8161 H         1 UNK         0.0000 
@<TRIPOS>BOND
     1    1   21 nc   
     2    1   23 nc   
     3    1   35 nc   
     4    1   37 nc   
     5    1   49 nc   
     6    1   51 nc   
     7    2    3 2    
     8    3    4 1    
     9    3   57 am   BACKBONE|DICT|INTERRES
    10    4   58 1    
    11    4    5 1    
    12    4   59 1    
    13    5   60 1    
    14    5    6 1    
    15    5   61 1    
    16    6    7 2    
    17    6    8 am   BACKBONE|DICT|INTERRES
    18    8    9 1    
    19    8   10 1    
    20    9   62 1    
    21   10   64 1    
    22   10   11 1    
    23   10   63 1    
    24   11   12 1    
    25   11   65 1    
    26   11   66 1    
    27   12   13 1    
    28   12   68 1    
    29   12   67 1    
    30   13   69 1    
    31   13   14 1    
    32   13   70 1    
    33   14   15 1    
    34   14   71 1    
    35   14   72 1    
    36   15   73 1    
    37   15   16 am   BACKBONE|DICT|INTERRES
    38   16   18 1    
    39   16   17 2    
    40   18   74 1    
    41   18   19 1    
    42   18   75 1    
    43   19   77 1    
    44   19   20 1    
    45   19   76 1    
    46   20   21 2    
    47   20   22 am   BACKBONE|DICT|INTERRES
    48   22   23 1    
    49   22   24 1    
    50   24   79 1    
    51   24   25 1    
    52   24   78 1    
    53   25   80 1    
    54   25   26 1    
    55   25   81 1    
    56   26   83 1    
    57   26   27 1    
    58   26   82 1    
    59   27   28 1    
    60   27   84 1    
    61   27   85 1    
    62   28   86 1    
    63   28   29 1    
    64   28   87 1    
    65   29   30 am   BACKBONE|DICT|INTERRES
    66   29   88 1    
    67   30   31 2    
    68   30   32 1    
    69   32   33 1    
    70   32   89 1    
    71   32   90 1    
    72   33   91 1    
    73   33   34 1    
    74   33   92 1    
    75   34   35 2    
    76   34   36 am   BACKBONE|DICT|INTERRES
    77   36   38 1    
    78   36   37 1    
    79   38   39 1    
    80   38   93 1    
    81   38   94 1    
    82   39   95 1    
    83   39   96 1    
    84   39   40 1    
    85   40   41 1    
    86   40   97 1    
    87   40   98 1    
    88   41   99 1    
    89   41  100 1    
    90   41   42 1    
    91   42  101 1    
    92   42   43 1    
    93   42  102 1    
    94   43  103 1    
    95   43   44 am   BACKBONE|DICT|INTERRES
    96   44   45 2    
    97   44   46 1    
    98   46  105 1    
    99   46   47 1    
   100   46  104 1    
   101   47  106 1    
   102   47   48 1    
   103   47  107 1    
   104   48   49 2    
   105   48   50 am   BACKBONE|DICT|INTERRES
   106   50   52 1    
   107   50   51 1    
   108   52  109 1    
   109   52  108 1    
   110   52   53 1    
   111   53  111 1    
   112   53   54 1    
   113   53  110 1    
   114   54   55 1    
   115   54  112 1    
   116   54  113 1    
   117   55  115 1    
   118   55   56 1    
   119   55  114 1    
   120   56  116 1    
   121   56  117 1    
   122   56   57 1    
   123   57  118 1    
@<TRIPOS>SUBSTRUCTURE
     1 UNK         1 GROUP             0       ****    0 ROOT    
@<TRIPOS>MOLECULE
104_c1
115   120    1
SMALL
USER_CHARGES


@<TRIPOS>ATOM
      1 Fe1         0.4100    2.5823    0.1833 Fe        1 UNK         0.0000 
      2 O2          1.4490    1.6026    1.8731 O.co2     1 UNK         0.0000 
      3 N3          0.7284    2.1088    2.8758 N.am      1 UNK         0.0000 
      4 C4          1.5233    2.8225    3.9075 C.3       1 UNK         0.0000 
      5 C5          2.9951    3.1805    3.5130 C.3       1 UNK         0.0000 
      6 C6          3.7526    4.1549    4.4385 C.3       1 UNK         0.0000 
      7 C7          3.2543    5.6169    4.4406 C.3       1 UNK         0.0000 
      8 N8          3.1208    6.2137    3.0996 N.am      1 UNK         0.0000 
      9 C9          1.9970    6.7389    2.5849 C.2       1 UNK         0.0000 
     10 O10         0.9210    6.6982    3.1673 O.2       1 UNK         0.0000 
     11 C11         2.1015    7.4307    1.2119 C.3       1 UNK         0.0000 
     12 C12         2.0032    6.5508   -0.0779 C.3       1 UNK         0.0000 
     13 C13         1.0796    5.3073    0.0054 C.2       1 UNK         0.0000 
     14 O14         1.4855    4.2995    0.6009 O.co2     1 UNK         0.0000 
     15 N15        -0.1587    5.2434   -0.5648 N.am      1 UNK         0.0000 
     16 O16        -1.0006    4.2230   -0.3594 O.co2     1 UNK         0.0000 
     17 C17        -0.6297    6.1683   -1.6326 C.3       1 UNK         0.0000 
     18 C18        -2.0767    6.7123   -1.4957 C.3       1 UNK         0.0000 
     19 C19        -2.7452    7.0835   -2.8443 C.3       1 UNK         0.0000 
     20 C20        -3.3469    5.8712   -3.6102 C.3       1 UNK         0.0000 
     21 C21        -2.7534    5.5571   -5.0057 C.3       1 UNK         0.0000 
     22 N22        -1.3407    5.1823   -5.0251 N.am      1 UNK         0.0000 
     23 C23        -0.7704    4.0043   -4.7543 C.2       1 UNK         0.0000 
     24 O24         0.4273    3.8949   -4.9691 O.2       1 UNK         0.0000 
     25 C25        -1.5877    2.8256   -4.1937 C.3       1 UNK         0.0000 
     26 C26        -0.7783    1.5326   -3.8693 C.3       1 UNK         0.0000 
     27 C27         0.0293    1.5899   -2.5527 C.2       1 UNK         0.0000 
     28 O28        -0.5859    1.6697   -1.4799 O.co2     1 UNK         0.0000 
     29 N29         1.3935    1.5962   -2.5094 N.am      1 UNK         0.0000 
     30 O30         2.0917    1.7636   -1.3770 O.co2     1 UNK         0.0000 
     31 C31         2.2392    1.3586   -3.6973 C.3       1 UNK         0.0000 
     32 C32         2.2417   -0.1075   -4.1811 C.3       1 UNK         0.0000 
     33 C33         2.7248   -1.1706   -3.1758 C.3       1 UNK         0.0000 
     34 C34         2.6862   -2.5737   -3.8247 C.3       1 UNK         0.0000 
     35 C35         3.6059   -3.6335   -3.1950 C.3       1 UNK         0.0000 
     36 N36         3.0664   -4.2732   -1.9942 N.am      1 UNK         0.0000 
     37 C37         2.6918   -5.5604   -1.9278 C.2       1 UNK         0.0000 
     38 O38         2.6479   -6.2910   -2.9131 O.2       1 UNK         0.0000 
     39 C39         2.4292   -6.1389   -0.5319 C.3       1 UNK         0.0000 
     40 C40         1.2546   -7.1571   -0.4352 C.3       1 UNK         0.0000 
     41 C41        -0.0954   -6.5277   -0.0158 C.2       1 UNK         0.0000 
     42 O42        -0.3801   -5.4117   -0.4463 O.2       1 UNK         0.0000 
     43 N43        -0.9498   -7.2084    0.8040 N.am      1 UNK         0.0000 
     44 O44        -0.5362   -8.4578    1.3113 O.3       1 UNK         0.0000 
     45 C45        -2.2233   -6.7148    1.3476 C.3       1 UNK         0.0000 
     46 C46        -2.2176   -6.4983    2.8810 C.3       1 UNK         0.0000 
     47 C47        -1.3653   -5.3164    3.3931 C.3       1 UNK         0.0000 
     48 C48        -2.0342   -3.9358    3.2169 C.3       1 UNK         0.0000 
     49 C49        -1.2188   -2.7930    3.8495 C.3       1 UNK         0.0000 
     50 N50        -1.9219   -1.5068    3.8311 N.am      1 UNK         0.0000 
     51 C51        -1.5211   -0.4279    4.5238 C.2       1 UNK         0.0000 
     52 O52        -0.5502   -0.4478    5.2739 O.2       1 UNK         0.0000 
     53 C53        -2.3196    0.8736    4.3305 C.3       1 UNK         0.0000 
     54 C54        -1.4428    2.1537    4.1741 C.3       1 UNK         0.0000 
     55 C55        -0.6332    2.0887    2.8724 C.2       1 UNK         0.0000 
     56 O56        -1.2270    1.9223    1.7967 O.co2     1 UNK         0.0000 
     57 H57         1.5492    2.2173    4.8161 H         1 UNK         0.0000 
     58 H58         1.0069    3.7443    4.1981 H         1 UNK         0.0000 
     59 H59         3.0334    3.5729    2.4984 H         1 UNK         0.0000 
     60 H60         3.5574    2.2455    3.4837 H         1 UNK         0.0000 
     61 H61         4.8052    4.1484    4.1507 H         1 UNK         0.0000 
     62 H62         3.7392    3.7706    5.4584 H         1 UNK         0.0000 
     63 H63         2.3023    5.6546    4.9751 H         1 UNK         0.0000 
     64 H64         3.9475    6.2422    5.0096 H         1 UNK         0.0000 
     65 H65         3.9400    6.2149    2.5165 H         1 UNK         0.0000 
     66 H66         1.3002    8.1711    1.1691 H         1 UNK         0.0000 
     67 H67         2.9973    8.0507    1.1729 H         1 UNK         0.0000 
     68 H68         3.0010    6.1661   -0.2886 H         1 UNK         0.0000 
     69 H69         1.8535    7.1799   -0.9541 H         1 UNK         0.0000 
     70 H70         0.0164    7.0071   -1.8901 H         1 UNK         0.0000 
     71 H71        -0.5854    5.5639   -2.5347 H         1 UNK         0.0000 
     72 H72        -2.0526    7.5889   -0.8508 H         1 UNK         0.0000 
     73 H73        -2.7162    6.0086   -0.9705 H         1 UNK         0.0000 
     74 H74        -3.5610    7.7788   -2.6317 H         1 UNK         0.0000 
     75 H75        -2.0496    7.6422   -3.4713 H         1 UNK         0.0000 
     76 H76        -4.4129    6.0613   -3.7594 H         1 UNK         0.0000 
     77 H77        -3.3312    4.9760   -2.9900 H         1 UNK         0.0000 
     78 H78        -2.8098    6.4650   -5.6114 H         1 UNK         0.0000 
     79 H79        -3.3627    4.8177   -5.5317 H         1 UNK         0.0000 
     80 H80        -0.6836    5.8632   -5.3719 H         1 UNK         0.0000 
     81 H81        -2.2907    2.5751   -4.9840 H         1 UNK         0.0000 
     82 H82        -2.2100    3.1105   -3.3523 H         1 UNK         0.0000 
     83 H83        -0.2382    1.1797   -4.7452 H         1 UNK         0.0000 
     84 H84        -1.5028    0.7363   -3.6980 H         1 UNK         0.0000 
     85 H85         3.2772    1.6258   -3.4683 H         1 UNK         0.0000 
     86 H86         1.9771    2.0288   -4.5211 H         1 UNK         0.0000 
     87 H87         2.8836   -0.1465   -5.0574 H         1 UNK         0.0000 
     88 H88         1.2532   -0.3873   -4.5333 H         1 UNK         0.0000 
     89 H89         3.7376   -0.9247   -2.8495 H         1 UNK         0.0000 
     90 H90         2.1142   -1.1632   -2.2675 H         1 UNK         0.0000 
     91 H91         2.9961   -2.4774   -4.8675 H         1 UNK         0.0000 
     92 H92         1.6598   -2.9455   -3.8699 H         1 UNK         0.0000 
     93 H93         3.8755   -4.3635   -3.9644 H         1 UNK         0.0000 
     94 H94         4.5591   -3.1770   -2.9238 H         1 UNK         0.0000 
     95 H95         3.0069   -3.7171   -1.1573 H         1 UNK         0.0000 
     96 H96         3.3550   -6.6684   -0.3032 H         1 UNK         0.0000 
     97 H97         2.3334   -5.3460    0.2107 H         1 UNK         0.0000 
     98 H98         1.5512   -7.9046    0.2973 H         1 UNK         0.0000 
     99 H99         1.0931   -7.6847   -1.3768 H         1 UNK         0.0000 
    100 H100       -1.1354   -9.0861    0.8982 H         1 UNK         0.0000 
    101 H101       -2.5150   -5.7851    0.8560 H         1 UNK         0.0000 
    102 H102       -3.0035   -7.4304    1.0839 H         1 UNK         0.0000 
    103 H103       -1.8950   -7.4170    3.3748 H         1 UNK         0.0000 
    104 H104       -3.2456   -6.3486    3.2137 H         1 UNK         0.0000 
    105 H105       -0.3827   -5.3270    2.9175 H         1 UNK         0.0000 
    106 H106       -1.1737   -5.4765    4.4564 H         1 UNK         0.0000 
    107 H107       -2.1820   -3.7348    2.1550 H         1 UNK         0.0000 
    108 H108       -3.0260   -3.9572    3.6713 H         1 UNK         0.0000 
    109 H109       -0.2518   -2.7034    3.3481 H         1 UNK         0.0000 
    110 H110       -0.9700   -3.0641    4.8790 H         1 UNK         0.0000 
    111 H111       -2.7289   -1.4263    3.2357 H         1 UNK         0.0000 
    112 H112       -3.0447    0.8032    3.5226 H         1 UNK         0.0000 
    113 H113       -2.9322    0.9825    5.2195 H         1 UNK         0.0000 
    114 H114       -2.0912    3.0290    4.1018 H         1 UNK         0.0000 
    115 H115       -0.8539    2.3447    5.0731 H         1 UNK         0.0000 
@<TRIPOS>BOND
     1    1    2 nc   
     2    1   14 nc   
     3    1   16 nc   
     4    1   28 nc   
     5    1   30 nc   
     6    1   56 nc   
     7    2    3 1    
     8    3    4 1    
     9    3   55 am   BACKBONE|DICT|INTERRES
    10    4   58 1    
    11    4   57 1    
    12    4    5 1    
    13    5    6 1    
    14    5   59 1    
    15    5   60 1    
    16    6   62 1    
    17    6    7 1    
    18    6   61 1    
    19    7   63 1    
    20    7   64 1    
    21    7    8 1    
    22    8    9 am   BACKBONE|DICT|INTERRES
    23    8   65 1    
    24    9   10 2    
    25    9   11 1    
    26   11   12 1    
    27   11   66 1    
    28   11   67 1    
    29   12   13 1    
    30   12   68 1    
    31   12   69 1    
    32   13   14 2    
    33   13   15 am   BACKBONE|DICT|INTERRES
    34   15   16 1    
    35   15   17 1    
    36   17   18 1    
    37   17   70 1    
    38   17   71 1    
    39   18   73 1    
    40   18   72 1    
    41   18   19 1    
    42   19   74 1    
    43   19   20 1    
    44   19   75 1    
    45   20   77 1    
    46   20   21 1    
    47   20   76 1    
    48   21   22 1    
    49   21   78 1    
    50   21   79 1    
    51   22   23 am   BACKBONE|DICT|INTERRES
    52   22   80 1    
    53   23   25 1    
    54   23   24 2    
    55   25   26 1    
    56   25   82 1    
    57   25   81 1    
    58   26   84 1    
    59   26   27 1    
    60   26   83 1    
    61   27   29 am   BACKBONE|DICT|INTERRES
    62   27   28 2    
    63   29   30 1    
    64   29   31 1    
    65   31   85 1    
    66   31   32 1    
    67   31   86 1    
    68   32   33 1    
    69   32   87 1    
    70   32   88 1    
    71   33   89 1    
    72   33   90 1    
    73   33   34 1    
    74   34   35 1    
    75   34   91 1    
    76   34   92 1    
    77   35   94 1    
    78   35   36 1    
    79   35   93 1    
    80   36   37 am   BACKBONE|DICT|INTERRES
    81   36   95 1    
    82   37   39 1    
    83   37   38 2    
    84   39   96 1    
    85   39   97 1    
    86   39   40 1    
    87   40   41 1    
    88   40   98 1    
    89   40   99 1    
    90   41   43 am   BACKBONE|DICT|INTERRES
    91   41   42 2    
    92   43   45 1    
    93   43   44 1    
    94   44  100 1    
    95   45   46 1    
    96   45  101 1    
    97   45  102 1    
    98   46  104 1    
    99   46  103 1    
   100   46   47 1    
   101   47  106 1    
   102   47   48 1    
   103   47  105 1    
   104   48  108 1    
   105   48   49 1    
   106   48  107 1    
   107   49  110 1    
   108   49   50 1    
   109   49  109 1    
   110   50   51 am   BACKBONE|DICT|INTERRES
   111   50  111 1    
   112   51   52 2    
   113   51   53 1    
   114   53  113 1    
   115   53   54 1    
   116   53  112 1    
   117   54  115 1    
   118   54   55 1    
   119   54  114 1    
   120   55   56 2    
@<TRIPOS>SUBSTRUCTURE
     1 UNK         1 GROUP             0       ****    0 ROOT    
@<TRIPOS>MOLECULE
104_c2
115   120    1
SMALL
USER_CHARGES


@<TRIPOS>ATOM
      1 Fe1        -0.2056   -2.8445    0.2181 Fe        1 UNK         0.0000 
      2 O2         -2.0590   -4.1211    0.1371 O.co2     1 UNK         0.0000 
      3 N3         -1.5793   -5.3698    0.1824 N.am      1 UNK         0.0000 
      4 C4         -2.6082   -6.4086    0.2189 C.3       1 UNK         0.0000 
      5 C5         -3.4914   -6.3175    1.4834 C.3       1 UNK         0.0000 
      6 C6         -2.7577   -6.7395    2.7767 C.3       1 UNK         0.0000 
      7 C7         -3.3702   -6.2013    4.0842 C.3       1 UNK         0.0000 
      8 N8         -3.0331   -4.8017    4.3500 N.am      1 UNK         0.0000 
      9 C9         -1.8318   -4.3763    4.7657 C.2       1 UNK         0.0000 
     10 O10        -0.8893   -5.1329    4.9813 O.2       1 UNK         0.0000 
     11 C11        -1.6649   -2.8617    4.9582 C.3       1 UNK         0.0000 
     12 C12        -0.2575   -2.3005    4.6226 C.3       1 UNK         0.0000 
     13 C13         0.0235   -2.1560    3.1100 C.2       1 UNK         0.0000 
     14 O14        -0.3813   -2.9458    2.2500 O.co2     1 UNK         0.0000 
     15 N15         0.6879   -1.1239    2.5557 N.am      1 UNK         0.0000 
     16 O16         0.8305   -1.1358    1.2293 O.co2     1 UNK         0.0000 
     17 C17         1.1241    0.0849    3.2728 C.3       1 UNK         0.0000 
     18 C18         1.7016    1.2127    2.3937 C.3       1 UNK         0.0000 
     19 C19         1.9269    2.5076    3.1721 C.3       1 UNK         0.0000 
     20 C20         2.3658    3.6467    2.2457 C.3       1 UNK         0.0000 
     21 C21         2.5228    4.9418    3.0372 C.3       1 UNK         0.0000 
     22 N22         2.7693    6.0927    2.1770 N.am      1 UNK         0.0000 
     23 C23         1.9379    7.1351    2.0717 C.2       1 UNK         0.0000 
     24 O24         0.8840    7.2235    2.6918 O.2       1 UNK         0.0000 
     25 C25         2.4034    8.2769    1.1594 C.3       1 UNK         0.0000 
     26 C26         1.4516    9.5018    1.0562 C.3       1 UNK         0.0000 
     27 C27         0.1248    9.2826    0.2893 C.2       1 UNK         0.0000 
     28 O28        -0.9252    9.2862    0.9325 O.2       1 UNK         0.0000 
     29 N29         0.1274    9.1366   -1.0645 N.am      1 UNK         0.0000 
     30 O30         1.3741    9.0515   -1.7186 O.3       1 UNK         0.0000 
     31 C31        -1.0395    8.7906   -1.8905 C.3       1 UNK         0.0000 
     32 C32        -1.5565    7.3410   -1.7236 C.3       1 UNK         0.0000 
     33 C33        -0.7083    6.2420   -2.3985 C.3       1 UNK         0.0000 
     34 C34        -1.4262    4.8736   -2.3861 C.3       1 UNK         0.0000 
     35 C35        -0.7920    3.8417   -3.3240 C.3       1 UNK         0.0000 
     36 N36        -1.6287    2.6498   -3.4275 N.am      1 UNK         0.0000 
     37 C37        -1.1712    1.3972   -3.4069 C.2       1 UNK         0.0000 
     38 O38         0.0200    1.1157   -3.3328 O.2       1 UNK         0.0000 
     39 C39        -2.2400    0.2914   -3.4708 C.3       1 UNK         0.0000 
     40 C40        -1.7072   -1.1478   -3.6491 C.3       1 UNK         0.0000 
     41 C41        -0.9679   -1.6945   -2.4151 C.2       1 UNK         0.0000 
     42 O42        -1.4396   -1.6827   -1.2661 O.co2     1 UNK         0.0000 
     43 N43         0.2472   -2.2951   -2.4532 N.am      1 UNK         0.0000 
     44 O44         0.6961   -2.6722   -1.2735 O.co2     1 UNK         0.0000 
     45 C45         0.9678   -2.8207   -3.6255 C.3       1 UNK         0.0000 
     46 C46         1.1276   -4.3619   -3.5644 C.3       1 UNK         0.0000 
     47 C47         2.0475   -4.9645   -4.6367 C.3       1 UNK         0.0000 
     48 C48         2.3258   -6.4785   -4.4646 C.3       1 UNK         0.0000 
     49 C49         3.2213   -6.8823   -3.2704 C.3       1 UNK         0.0000 
     50 N50         2.5131   -7.0455   -1.9928 N.am      1 UNK         0.0000 
     51 C51         2.7868   -6.3799   -0.8592 C.2       1 UNK         0.0000 
     52 O52         3.6344   -5.4981   -0.7848 O.2       1 UNK         0.0000 
     53 C53         2.0323   -6.7885    0.4169 C.3       1 UNK         0.0000 
     54 C54         0.4813   -6.9032    0.3212 C.3       1 UNK         0.0000 
     55 C55        -0.2434   -5.5456    0.3000 C.2       1 UNK         0.0000 
     56 O56         0.3571   -4.4684    0.3774 O.co2     1 UNK         0.0000 
     57 H57        -2.1925   -7.4121    0.1371 H         1 UNK         0.0000 
     58 H58        -3.2192   -6.2944   -0.6750 H         1 UNK         0.0000 
     59 H59        -3.8665   -5.2951    1.5609 H         1 UNK         0.0000 
     60 H60        -4.3738   -6.9454    1.3474 H         1 UNK         0.0000 
     61 H61        -1.7123   -6.4285    2.7450 H         1 UNK         0.0000 
     62 H62        -2.7404   -7.8294    2.7952 H         1 UNK         0.0000 
     63 H63        -4.4556   -6.2866    4.0397 H         1 UNK         0.0000 
     64 H64        -3.0694   -6.8342    4.9202 H         1 UNK         0.0000 
     65 H65        -3.7330   -4.1136    4.1327 H         1 UNK         0.0000 
     66 H66        -2.4440   -2.2777    4.4674 H         1 UNK         0.0000 
     67 H67        -1.8313   -2.7115    6.0257 H         1 UNK         0.0000 
     68 H68         0.5291   -2.8607    5.1281 H         1 UNK         0.0000 
     69 H69        -0.2044   -1.3074    5.0650 H         1 UNK         0.0000 
     70 H70         1.8376   -0.1758    4.0533 H         1 UNK         0.0000 
     71 H71         0.2699    0.5077    3.8028 H         1 UNK         0.0000 
     72 H72         1.0011    1.4107    1.5781 H         1 UNK         0.0000 
     73 H73         2.6383    0.8861    1.9341 H         1 UNK         0.0000 
     74 H74         0.9941    2.7891    3.6663 H         1 UNK         0.0000 
     75 H75         2.6691    2.3469    3.9568 H         1 UNK         0.0000 
     76 H76         1.6249    3.7864    1.4540 H         1 UNK         0.0000 
     77 H77         3.3062    3.3838    1.7560 H         1 UNK         0.0000 
     78 H78         3.3220    4.8399    3.7708 H         1 UNK         0.0000 
     79 H79         1.6226    5.0817    3.6430 H         1 UNK         0.0000 
     80 H80         3.6548    6.1309    1.7008 H         1 UNK         0.0000 
     81 H81         3.3103    8.6403    1.6421 H         1 UNK         0.0000 
     82 H82         2.7419    7.9266    0.1862 H         1 UNK         0.0000 
     83 H83         1.2781    9.9260    2.0471 H         1 UNK         0.0000 
     84 H84         1.9838   10.2981    0.5374 H         1 UNK         0.0000 
     85 H85         1.4653    9.9110   -2.1473 H         1 UNK         0.0000 
     86 H86        -1.8533    9.4905   -1.6918 H         1 UNK         0.0000 
     87 H87        -0.7848    8.9512   -2.9403 H         1 UNK         0.0000 
     88 H88        -2.5511    7.3060   -2.1705 H         1 UNK         0.0000 
     89 H89        -1.6958    7.1078   -0.6648 H         1 UNK         0.0000 
     90 H90         0.2581    6.1563   -1.8940 H         1 UNK         0.0000 
     91 H91        -0.4960    6.5428   -3.4278 H         1 UNK         0.0000 
     92 H92        -1.4175    4.4780   -1.3677 H         1 UNK         0.0000 
     93 H93        -2.4768    5.0049   -2.6578 H         1 UNK         0.0000 
     94 H94         0.2236    3.6213   -2.9836 H         1 UNK         0.0000 
     95 H95        -0.6645    4.2635   -4.3208 H         1 UNK         0.0000 
     96 H96        -2.6160    2.7915   -3.5563 H         1 UNK         0.0000 
     97 H97        -2.9215    0.3429   -2.6229 H         1 UNK         0.0000 
     98 H98        -2.8576    0.5102   -4.3405 H         1 UNK         0.0000 
     99 H99        -2.5545   -1.8148   -3.7888 H         1 UNK         0.0000 
    100 H100       -1.1769   -1.2322   -4.5937 H         1 UNK         0.0000 
    101 H101        0.5080   -2.5579   -4.5782 H         1 UNK         0.0000 
    102 H102        1.9504   -2.3446   -3.6629 H         1 UNK         0.0000 
    103 H103        0.1335   -4.8062   -3.6328 H         1 UNK         0.0000 
    104 H104        1.5341   -4.6401   -2.5949 H         1 UNK         0.0000 
    105 H105        2.9977   -4.4257   -4.6341 H         1 UNK         0.0000 
    106 H106        1.5986   -4.7867   -5.6168 H         1 UNK         0.0000 
    107 H107        2.8353   -6.7994   -5.3704 H         1 UNK         0.0000 
    108 H108        1.3939   -7.0432   -4.4482 H         1 UNK         0.0000 
    109 H109        4.0463   -6.1708   -3.1847 H         1 UNK         0.0000 
    110 H110        3.7063   -7.8301   -3.4981 H         1 UNK         0.0000 
    111 H111        1.8497   -7.8002   -1.9396 H         1 UNK         0.0000 
    112 H112        2.4392   -7.7640    0.6671 H         1 UNK         0.0000 
    113 H113        2.3329   -6.1810    1.2747 H         1 UNK         0.0000 
    114 H114        0.1777   -7.5778   -0.4799 H         1 UNK         0.0000 
    115 H115        0.1519   -7.3660    1.2494 H         1 UNK         0.0000 
@<TRIPOS>BOND
     1    1    2 nc   
     2    1   14 nc   
     3    1   16 nc   
     4    1   42 nc   
     5    1   44 nc   
     6    1   56 nc   
     7    2    3 1    
     8    3    4 1    
     9    3   55 am   BACKBONE|DICT|INTERRES
    10    4    5 1    
    11    4   57 1    
    12    4   58 1    
    13    5   59 1    
    14    5    6 1    
    15    5   60 1    
    16    6    7 1    
    17    6   61 1    
    18    6   62 1    
    19    7    8 1    
    20    7   64 1    
    21    7   63 1    
    22    8    9 am   BACKBONE|DICT|INTERRES
    23    8   65 1    
    24    9   10 2    
    25    9   11 1    
    26   11   67 1    
    27   11   12 1    
    28   11   66 1    
    29   12   68 1    
    30   12   69 1    
    31   12   13 1    
    32   13   14 2    
    33   13   15 am   BACKBONE|DICT|INTERRES
    34   15   17 1    
    35   15   16 1    
    36   17   71 1    
    37   17   70 1    
    38   17   18 1    
    39   18   19 1    
    40   18   72 1    
    41   18   73 1    
    42   19   74 1    
    43   19   75 1    
    44   19   20 1    
    45   20   21 1    
    46   20   76 1    
    47   20   77 1    
    48   21   79 1    
    49   21   78 1    
    50   21   22 1    
    51   22   23 am   BACKBONE|DICT|INTERRES
    52   22   80 1    
    53   23   24 2    
    54   23   25 1    
    55   25   81 1    
    56   25   26 1    
    57   25   82 1    
    58   26   83 1    
    59   26   27 1    
    60   26   84 1    
    61   27   28 2    
    62   27   29 am   BACKBONE|DICT|INTERRES
    63   29   30 1    
    64   29   31 1    
    65   30   85 1    
    66   31   32 1    
    67   31   86 1    
    68   31   87 1    
    69   32   89 1    
    70   32   33 1    
    71   32   88 1    
    72   33   34 1    
    73   33   90 1    
    74   33   91 1    
    75   34   92 1    
    76   34   35 1    
    77   34   93 1    
    78   35   94 1    
    79   35   36 1    
    80   35   95 1    
    81   36   37 am   BACKBONE|DICT|INTERRES
    82   36   96 1    
    83   37   38 2    
    84   37   39 1    
    85   39   97 1    
    86   39   40 1    
    87   39   98 1    
    88   40   41 1    
    89   40   99 1    
    90   40  100 1    
    91   41   42 2    
    92   41   43 am   BACKBONE|DICT|INTERRES
    93   43   44 1    
    94   43   45 1    
    95   45  102 1    
    96   45   46 1    
    97   45  101 1    
    98   46  104 1    
    99   46   47 1    
   100   46  103 1    
   101   47  105 1    
   102   47   48 1    
   103   47  106 1    
   104   48   49 1    
   105   48  107 1    
   106   48  108 1    
   107   49  109 1    
   108   49   50 1    
   109   49  110 1    
   110   50  111 1    
   111   50   51 am   BACKBONE|DICT|INTERRES
   112   51   53 1    
   113   51   52 2    
   114   53  112 1    
   115   53  113 1    
   116   53   54 1    
   117   54  115 1    
   118   54   55 1    
   119   54  114 1    
   120   55   56 2    
@<TRIPOS>SUBSTRUCTURE
     1 UNK         1 GROUP             0       ****    0 ROOT    
@<TRIPOS>MOLECULE
104_c3
115   120    1
SMALL
USER_CHARGES


@<TRIPOS>ATOM
      1 Fe1        -0.0005    2.3402    0.2723 Fe        1 UNK         0.0000 
      2 O2          0.3669    1.0314   -1.4398 O.co2     1 UNK         0.0000 
      3 N3         -0.6268    1.0628   -2.3254 N.am      1 UNK         0.0000 
      4 C4         -0.4778    0.1942   -3.4947 C.3       1 UNK         0.0000 
      5 C5         -0.3514   -1.2941   -3.0937 C.3       1 UNK         0.0000 
      6 C6         -0.1757   -2.2587   -4.2808 C.3       1 UNK         0.0000 
      7 C7          0.0102   -3.7239   -3.8467 C.3       1 UNK         0.0000 
      8 N8         -1.1828   -4.2479   -3.1832 N.am      1 UNK         0.0000 
      9 C9         -1.3628   -5.4644   -2.6678 C.2       1 UNK         0.0000 
     10 O10        -2.4724   -5.7629   -2.2524 O.2       1 UNK         0.0000 
     11 C11        -0.1889   -6.4595   -2.6462 C.3       1 UNK         0.0000 
     12 C12        -0.5036   -7.9131   -2.2004 C.3       1 UNK         0.0000 
     13 C13        -0.6696   -8.1353   -0.6746 C.2       1 UNK         0.0000 
     14 O14        -1.6960   -7.7304   -0.1312 O.2       1 UNK         0.0000 
     15 N15         0.2482   -8.8549    0.0286 N.am      1 UNK         0.0000 
     16 O16         1.4724   -9.1782   -0.5942 O.3       1 UNK         0.0000 
     17 C17         0.1478   -9.2571    1.4361 C.3       1 UNK         0.0000 
     18 C18         1.1333   -8.5406    2.3811 C.3       1 UNK         0.0000 
     19 C19         0.7612   -7.0857    2.7368 C.3       1 UNK         0.0000 
     20 C20         1.7765   -6.4745    3.7306 C.3       1 UNK         0.0000 
     21 C21         1.2448   -5.3007    4.5717 C.3       1 UNK         0.0000 
     22 N22         0.9152   -4.1155    3.7833 N.am      1 UNK         0.0000 
     23 C23         1.4605   -2.9035    3.9588 C.2       1 UNK         0.0000 
     24 O24         2.3628   -2.6873    4.7644 O.2       1 UNK         0.0000 
     25 C25         0.8757   -1.7791    3.1047 C.3       1 UNK         0.0000 
     26 C26         1.3586   -0.3595    3.5130 C.3       1 UNK         0.0000 
     27 C27         0.6714    0.6954    2.6515 C.2       1 UNK         0.0000 
     28 O28         0.8297    0.7645    1.4229 O.co2     1 UNK         0.0000 
     29 N29        -0.1761    1.6387    3.1222 N.am      1 UNK         0.0000 
     30 O30        -0.7513    2.4065    2.2079 O.co2     1 UNK         0.0000 
     31 C31        -0.3461    2.0347    4.5404 C.3       1 UNK         0.0000 
     32 C32        -0.9644    3.4441    4.7359 C.3       1 UNK         0.0000 
     33 C33        -1.0061    3.9900    6.1732 C.3       1 UNK         0.0000 
     34 C34        -1.7271    5.3586    6.2721 C.3       1 UNK         0.0000 
     35 C35        -1.0993    6.5199    5.4610 C.3       1 UNK         0.0000 
     36 N36        -1.4845    6.5493    4.0400 N.am      1 UNK         0.0000 
     37 C37        -0.6381    6.7049    3.0109 C.2       1 UNK         0.0000 
     38 O38         0.5746    6.8131    3.1614 O.2       1 UNK         0.0000 
     39 C39        -1.2539    6.7680    1.6047 C.3       1 UNK         0.0000 
     40 C40        -0.2370    6.6046    0.4332 C.3       1 UNK         0.0000 
     41 C41         0.2219    5.1547    0.2386 C.2       1 UNK         0.0000 
     42 O42        -0.5713    4.2169    0.1868 O.co2     1 UNK         0.0000 
     43 N43         1.4990    4.7412    0.1019 N.am      1 UNK         0.0000 
     44 O44         1.7249    3.4225    0.0857 O.co2     1 UNK         0.0000 
     45 C45         2.6363    5.6070   -0.2498 C.3       1 UNK         0.0000 
     46 C46         2.4748    6.3946   -1.5831 C.3       1 UNK         0.0000 
     47 C47         1.8852    5.5908   -2.7721 C.3       1 UNK         0.0000 
     48 C48         1.3854    6.4841   -3.9355 C.3       1 UNK         0.0000 
     49 C49         0.4200    5.7738   -4.9119 C.3       1 UNK         0.0000 
     50 N50        -0.8133    5.3246   -4.2467 N.am      1 UNK         0.0000 
     51 C51        -1.2951    4.0720   -4.2673 C.2       1 UNK         0.0000 
     52 O52        -0.7928    3.1761   -4.9361 O.2       1 UNK         0.0000 
     53 C53        -2.5319    3.7833   -3.4005 C.3       1 UNK         0.0000 
     54 C54        -2.7646    2.2912   -2.9925 C.3       1 UNK         0.0000 
     55 C55        -1.7089    1.7982   -1.9941 C.2       1 UNK         0.0000 
     56 O56        -1.6615    2.1979   -0.8285 O.co2     1 UNK         0.0000 
     57 H57        -1.3030    0.3013   -4.1976 H         1 UNK         0.0000 
     58 H58         0.3954    0.5163   -4.0692 H         1 UNK         0.0000 
     59 H59         0.5057   -1.4070   -2.4252 H         1 UNK         0.0000 
     60 H60        -1.2328   -1.5721   -2.5127 H         1 UNK         0.0000 
     61 H61         0.6994   -1.9534   -4.8574 H         1 UNK         0.0000 
     62 H62        -1.0252   -2.1768   -4.9628 H         1 UNK         0.0000 
     63 H63         0.8433   -3.7795   -3.1410 H         1 UNK         0.0000 
     64 H64         0.2797   -4.3347   -4.7117 H         1 UNK         0.0000 
     65 H65        -1.9975   -3.6569   -3.1387 H         1 UNK         0.0000 
     66 H66         0.7026   -6.0656   -2.1571 H         1 UNK         0.0000 
     67 H67         0.0927   -6.5346   -3.6964 H         1 UNK         0.0000 
     68 H68        -1.3441   -8.3264   -2.7570 H         1 UNK         0.0000 
     69 H69         0.3248   -8.5228   -2.5548 H         1 UNK         0.0000 
     70 H70         1.4465  -10.1378   -0.6660 H         1 UNK         0.0000 
     71 H71        -0.8708   -9.1100    1.8058 H         1 UNK         0.0000 
     72 H72         0.3111  -10.3328    1.4893 H         1 UNK         0.0000 
     73 H73         1.1607   -9.1110    3.3110 H         1 UNK         0.0000 
     74 H74         2.1477   -8.5819    1.9793 H         1 UNK         0.0000 
     75 H75        -0.2410   -7.0652    3.1717 H         1 UNK         0.0000 
     76 H76         0.7107   -6.4737    1.8338 H         1 UNK         0.0000 
     77 H77         2.6851   -6.1716    3.2063 H         1 UNK         0.0000 
     78 H78         2.1002   -7.2440    4.4337 H         1 UNK         0.0000 
     79 H79         1.9479   -5.0952    5.3846 H         1 UNK         0.0000 
     80 H80         0.3173   -5.6042    5.0646 H         1 UNK         0.0000 
     81 H81         0.1798   -4.2075    3.1018 H         1 UNK         0.0000 
     82 H82        -0.2086   -1.8494    3.2052 H         1 UNK         0.0000 
     83 H83         1.1668   -2.0005    2.0777 H         1 UNK         0.0000 
     84 H84         2.4258   -0.2331    3.3291 H         1 UNK         0.0000 
     85 H85         1.1501   -0.1536    4.5636 H         1 UNK         0.0000 
     86 H86         0.6206    2.0174    5.0438 H         1 UNK         0.0000 
     87 H87        -0.9515    1.2944    5.0609 H         1 UNK         0.0000 
     88 H88        -0.3839    4.1373    4.1281 H         1 UNK         0.0000 
     89 H89        -1.9813    3.4326    4.3362 H         1 UNK         0.0000 
     90 H90         0.0118    4.0790    6.5612 H         1 UNK         0.0000 
     91 H91        -1.5153    3.2729    6.8223 H         1 UNK         0.0000 
     92 H92        -1.7405    5.6545    7.3224 H         1 UNK         0.0000 
     93 H93        -2.7771    5.2446    6.0001 H         1 UNK         0.0000 
     94 H94        -0.0135    6.4615    5.5739 H         1 UNK         0.0000 
     95 H95        -1.3630    7.4804    5.9147 H         1 UNK         0.0000 
     96 H96        -2.4669    6.4992    3.8278 H         1 UNK         0.0000 
     97 H97        -2.1169    6.1118    1.4846 H         1 UNK         0.0000 
     98 H98        -1.6744    7.7719    1.5375 H         1 UNK         0.0000 
     99 H99         0.5725    7.3295    0.5130 H         1 UNK         0.0000 
    100 H100       -0.7342    6.8573   -0.5030 H         1 UNK         0.0000 
    101 H101        3.5415    4.9980   -0.3281 H         1 UNK         0.0000 
    102 H102        2.8236    6.2946    0.5765 H         1 UNK         0.0000 
    103 H103        3.4414    6.8151   -1.8652 H         1 UNK         0.0000 
    104 H104        1.8485    7.2665   -1.3917 H         1 UNK         0.0000 
    105 H105        2.6218    4.8674   -3.1289 H         1 UNK         0.0000 
    106 H106        1.0508    4.9856   -2.4231 H         1 UNK         0.0000 
    107 H107        2.2466    6.8599   -4.4933 H         1 UNK         0.0000 
    108 H108        0.8844    7.3699   -3.5392 H         1 UNK         0.0000 
    109 H109        0.1740    6.4218   -5.7560 H         1 UNK         0.0000 
    110 H110        0.9549    4.9247   -5.3453 H         1 UNK         0.0000 
    111 H111       -1.3671    6.0367   -3.8005 H         1 UNK         0.0000 
    112 H112       -2.6030    4.4354   -2.5302 H         1 UNK         0.0000 
    113 H113       -3.3777    4.0911   -4.0127 H         1 UNK         0.0000 
    114 H114       -3.7244    2.2345   -2.4768 H         1 UNK         0.0000 
    115 H115       -2.9265    1.6493   -3.8560 H         1 UNK         0.0000 
@<TRIPOS>BOND
     1    1    2 nc   
     2    1   28 nc   
     3    1   30 nc   
     4    1   42 nc   
     5    1   44 nc   
     6    1   56 nc   
     7    2    3 1    
     8    3   55 am   BACKBONE|DICT|INTERRES
     9    3    4 1    
    10    4    5 1    
    11    4   57 1    
    12    4   58 1    
    13    5   60 1    
    14    5   59 1    
    15    5    6 1    
    16    6    7 1    
    17    6   61 1    
    18    6   62 1    
    19    7    8 1    
    20    7   63 1    
    21    7   64 1    
    22    8   65 1    
    23    8    9 am   BACKBONE|DICT|INTERRES
    24    9   10 2    
    25    9   11 1    
    26   11   12 1    
    27   11   66 1    
    28   11   67 1    
    29   12   13 1    
    30   12   68 1    
    31   12   69 1    
    32   13   14 2    
    33   13   15 am   BACKBONE|DICT|INTERRES
    34   15   17 1    
    35   15   16 1    
    36   16   70 1    
    37   17   72 1    
    38   17   71 1    
    39   17   18 1    
    40   18   19 1    
    41   18   73 1    
    42   18   74 1    
    43   19   75 1    
    44   19   20 1    
    45   19   76 1    
    46   20   21 1    
    47   20   78 1    
    48   20   77 1    
    49   21   80 1    
    50   21   79 1    
    51   21   22 1    
    52   22   23 am   BACKBONE|DICT|INTERRES
    53   22   81 1    
    54   23   24 2    
    55   23   25 1    
    56   25   82 1    
    57   25   26 1    
    58   25   83 1    
    59   26   85 1    
    60   26   27 1    
    61   26   84 1    
    62   27   28 2    
    63   27   29 am   BACKBONE|DICT|INTERRES
    64   29   31 1    
    65   29   30 1    
    66   31   32 1    
    67   31   86 1    
    68   31   87 1    
    69   32   33 1    
    70   32   88 1    
    71   32   89 1    
    72   33   34 1    
    73   33   90 1    
    74   33   91 1    
    75   34   92 1    
    76   34   35 1    
    77   34   93 1    
    78   35   94 1    
    79   35   95 1    
    80   35   36 1    
    81   36   37 am   BACKBONE|DICT|INTERRES
    82   36   96 1    
    83   37   38 2    
    84   37   39 1    
    85   39   40 1    
    86   39   97 1    
    87   39   98 1    
    88   40   99 1    
    89   40   41 1    
    90   40  100 1    
    91   41   42 2    
    92   41   43 am   BACKBONE|DICT|INTERRES
    93   43   44 1    
    94   43   45 1    
    95   45  102 1    
    96   45   46 1    
    97   45  101 1    
    98   46  104 1    
    99   46   47 1    
   100   46  103 1    
   101   47  106 1    
   102   47   48 1    
   103   47  105 1    
   104   48  108 1    
   105   48   49 1    
   106   48  107 1    
   107   49   50 1    
   108   49  109 1    
   109   49  110 1    
   110   50   51 am   BACKBONE|DICT|INTERRES
   111   50  111 1    
   112   51   53 1    
   113   51   52 2    
   114   53   54 1    
   115   53  112 1    
   116   53  113 1    
   117   54  114 1    
   118   54   55 1    
   119   54  115 1    
   120   55   56 2    
@<TRIPOS>SUBSTRUCTURE
     1 UNK         1 GROUP             0       ****    0 ROOT    
@<TRIPOS>MOLECULE
104_c4
115   120    1
SMALL
USER_CHARGES


@<TRIPOS>ATOM
      1 Fe1        -0.2289    2.2530   -0.2391 Fe        1 UNK         0.0000 
      2 O2         -0.5014   -8.9402    0.2466 O.3       1 UNK         0.0000 
      3 N3          0.8205   -8.5351   -0.0486 N.am      1 UNK         0.0000 
      4 C4          1.5768   -7.9720    1.0811 C.3       1 UNK         0.0000 
      5 C5          0.9754   -6.7008    1.7196 C.3       1 UNK         0.0000 
      6 C6          1.8502   -6.1990    2.8958 C.3       1 UNK         0.0000 
      7 C7          1.2812   -5.0308    3.7158 C.3       1 UNK         0.0000 
      8 N8          1.1813   -3.7984    2.9391 N.am      1 UNK         0.0000 
      9 C9          1.9251   -2.7024    3.1189 C.2       1 UNK         0.0000 
     10 O10         2.8587   -2.6282    3.9107 O.2       1 UNK         0.0000 
     11 C11         1.5292   -1.4883    2.2778 C.3       1 UNK         0.0000 
     12 C12         0.9017   -0.3421    3.1225 C.3       1 UNK         0.0000 
     13 C13         0.2539    0.6909    2.1908 C.2       1 UNK         0.0000 
     14 O14         0.5255    0.7690    0.9881 O.co2     1 UNK         0.0000 
     15 N15        -0.6349    1.6459    2.5459 N.am      1 UNK         0.0000 
     16 O16        -1.0936    2.3698    1.5280 O.co2     1 UNK         0.0000 
     17 C17        -0.7422    2.2596    3.8877 C.3       1 UNK         0.0000 
     18 C18        -0.1638    3.7008    3.9192 C.3       1 UNK         0.0000 
     19 C19        -0.6514    4.6000    5.0751 C.3       1 UNK         0.0000 
     20 C20        -0.0124    6.0150    5.1153 C.3       1 UNK         0.0000 
     21 C21        -0.1810    6.8918    3.8531 C.3       1 UNK         0.0000 
     22 N22         0.7712    6.5770    2.7859 N.am      1 UNK         0.0000 
     23 C23         0.8529    7.2521    1.6331 C.2       1 UNK         0.0000 
     24 O24         0.1642    8.2310    1.3697 O.2       1 UNK         0.0000 
     25 C25         1.8408    6.7176    0.5833 C.3       1 UNK         0.0000 
     26 C26         1.1720    6.2963   -0.7541 C.3       1 UNK         0.0000 
     27 C27         0.3500    5.0013   -0.6727 C.2       1 UNK         0.0000 
     28 O28         0.7427    4.0746    0.0429 O.co2     1 UNK         0.0000 
     29 N29        -0.7803    4.7053   -1.3722 N.am      1 UNK         0.0000 
     30 O30        -1.3775    3.5401   -1.1147 O.co2     1 UNK         0.0000 
     31 C31        -1.4730    5.4761   -2.4329 C.3       1 UNK         0.0000 
     32 C32        -0.6500    6.4001   -3.3687 C.3       1 UNK         0.0000 
     33 C33        -1.3090    6.5960   -4.7547 C.3       1 UNK         0.0000 
     34 C34        -0.8480    5.6258   -5.8735 C.3       1 UNK         0.0000 
     35 C35        -0.9639    4.1039   -5.6138 C.3       1 UNK         0.0000 
     36 N36         0.1106    3.5471   -4.7840 N.am      1 UNK         0.0000 
     37 C37         1.3651    3.3415   -5.2163 C.2       1 UNK         0.0000 
     38 O38         1.7273    3.5879   -6.3629 O.2       1 UNK         0.0000 
     39 C39         2.3934    2.7982   -4.2090 C.3       1 UNK         0.0000 
     40 C40         2.1118    1.3752   -3.6755 C.3       1 UNK         0.0000 
     41 C41         1.1049    1.3739   -2.5291 C.2       1 UNK         0.0000 
     42 O42         1.1640    2.1377   -1.5700 O.co2     1 UNK         0.0000 
     43 N43         0.0327    0.5642   -2.4344 N.am      1 UNK         0.0000 
     44 O44        -0.7657    0.7729   -1.3922 O.co2     1 UNK         0.0000 
     45 C45        -0.2789   -0.5663   -3.3026 C.3       1 UNK         0.0000 
     46 C46         0.6488   -1.7774   -3.0475 C.3       1 UNK         0.0000 
     47 C47         0.2405   -3.0636   -3.7867 C.3       1 UNK         0.0000 
     48 C48        -1.0217   -3.7259   -3.1982 C.3       1 UNK         0.0000 
     49 C49        -1.5186   -4.9408   -3.9873 C.3       1 UNK         0.0000 
     50 N50        -0.5976   -6.0727   -3.9462 N.am      1 UNK         0.0000 
     51 C51        -0.9341   -7.3086   -3.5587 C.2       1 UNK         0.0000 
     52 O52        -2.0513   -7.6218   -3.1543 O.2       1 UNK         0.0000 
     53 C53         0.1481   -8.3799   -3.7064 C.3       1 UNK         0.0000 
     54 C54         0.3834   -9.2416   -2.4415 C.3       1 UNK         0.0000 
     55 C55         1.2312   -8.5545   -1.3488 C.2       1 UNK         0.0000 
     56 O56         2.3228   -8.0940   -1.6918 O.2       1 UNK         0.0000 
     57 H57        -0.3986   -9.7730    0.7160 H         1 UNK         0.0000 
     58 H58         1.6760   -8.7383    1.8509 H         1 UNK         0.0000 
     59 H59         2.6060   -7.7614    0.7822 H         1 UNK         0.0000 
     60 H60        -0.0262   -6.9319    2.0902 H         1 UNK         0.0000 
     61 H61         0.8752   -5.9157    0.9644 H         1 UNK         0.0000 
     62 H62         2.0203   -7.0303    3.5822 H         1 UNK         0.0000 
     63 H63         2.8411   -5.9282    2.5237 H         1 UNK         0.0000 
     64 H64         0.2695   -5.2789    4.0368 H         1 UNK         0.0000 
     65 H65         1.8488   -4.8955    4.6377 H         1 UNK         0.0000 
     66 H66         0.4725   -3.7760    2.2270 H         1 UNK         0.0000 
     67 H67         2.4276   -1.1410    1.7663 H         1 UNK         0.0000 
     68 H68         0.8296   -1.8233    1.5095 H         1 UNK         0.0000 
     69 H69         0.1365   -0.7222    3.7959 H         1 UNK         0.0000 
     70 H70         1.6719    0.1751    3.6953 H         1 UNK         0.0000 
     71 H71        -1.7940    2.2772    4.1720 H         1 UNK         0.0000 
     72 H72        -0.2591    1.6735    4.6695 H         1 UNK         0.0000 
     73 H73         0.9211    3.6225    3.9517 H         1 UNK         0.0000 
     74 H74        -0.4189    4.2118    2.9944 H         1 UNK         0.0000 
     75 H75        -1.7380    4.7102    4.9998 H         1 UNK         0.0000 
     76 H76        -0.4591    4.1044    6.0265 H         1 UNK         0.0000 
     77 H77        -0.4672    6.5416    5.9571 H         1 UNK         0.0000 
     78 H78         1.0398    5.9548    5.3871 H         1 UNK         0.0000 
     79 H79        -0.1355    7.9467    4.1242 H         1 UNK         0.0000 
     80 H80        -1.1891    6.7496    3.4625 H         1 UNK         0.0000 
     81 H81         1.3319    5.7517    2.9077 H         1 UNK         0.0000 
     82 H82         2.5148    7.5467    0.3593 H         1 UNK         0.0000 
     83 H83         2.5075    5.9383    0.9589 H         1 UNK         0.0000 
     84 H84         1.9727    6.0802   -1.4644 H         1 UNK         0.0000 
     85 H85         0.6558    7.1433   -1.1855 H         1 UNK         0.0000 
     86 H86        -1.9634    4.7490   -3.0867 H         1 UNK         0.0000 
     87 H87        -2.3181    6.0218   -2.0102 H         1 UNK         0.0000 
     88 H88        -0.5927    7.3829   -2.8981 H         1 UNK         0.0000 
     89 H89         0.3755    6.0502   -3.5036 H         1 UNK         0.0000 
     90 H90        -2.3950    6.5544   -4.6541 H         1 UNK         0.0000 
     91 H91        -1.0994    7.6095   -5.1058 H         1 UNK         0.0000 
     92 H92         0.1807    5.8523   -6.1577 H         1 UNK         0.0000 
     93 H93        -1.4337    5.8611   -6.7621 H         1 UNK         0.0000 
     94 H94        -1.9173    3.8916   -5.1345 H         1 UNK         0.0000 
     95 H95        -1.0257    3.5641   -6.5596 H         1 UNK         0.0000 
     96 H96        -0.1522    3.2987   -3.8427 H         1 UNK         0.0000 
     97 H97         3.3445    2.7517   -4.7430 H         1 UNK         0.0000 
     98 H98         2.5660    3.5111   -3.4024 H         1 UNK         0.0000 
     99 H99         3.0215    1.0038   -3.2061 H         1 UNK         0.0000 
    100 H100        1.8840    0.6785   -4.4773 H         1 UNK         0.0000 
    101 H101       -1.3207   -0.8496   -3.1489 H         1 UNK         0.0000 
    102 H102       -0.2453   -0.2811   -4.3556 H         1 UNK         0.0000 
    103 H103        1.6471   -1.4995   -3.3893 H         1 UNK         0.0000 
    104 H104        0.7117   -1.9876   -1.9758 H         1 UNK         0.0000 
    105 H105        0.1037   -2.8464   -4.8468 H         1 UNK         0.0000 
    106 H106        1.0701   -3.7685   -3.7318 H         1 UNK         0.0000 
    107 H107       -0.8482   -4.0085   -2.1598 H         1 UNK         0.0000 
    108 H108       -1.8347   -3.0021   -3.1705 H         1 UNK         0.0000 
    109 H109       -1.6069   -4.6573   -5.0336 H         1 UNK         0.0000 
    110 H110       -2.5320   -5.1986   -3.6770 H         1 UNK         0.0000 
    111 H111        0.3188   -5.9434   -4.3422 H         1 UNK         0.0000 
    112 H112        1.0812   -8.0032   -4.1270 H         1 UNK         0.0000 
    113 H113       -0.2470   -9.0356   -4.4799 H         1 UNK         0.0000 
    114 H114       -0.5474   -9.6869   -2.0917 H         1 UNK         0.0000 
    115 H115        0.9785  -10.1026   -2.7539 H         1 UNK         0.0000 
@<TRIPOS>BOND
     1    1   14 nc   
     2    1   16 nc   
     3    1   28 nc   
     4    1   30 nc   
     5    1   42 nc   
     6    1   44 nc   
     7    2   57 1    
     8    2    3 1    
     9    3    4 1    
    10    3   55 am   BACKBONE|DICT|INTERRES
    11    4    5 1    
    12    4   58 1    
    13    4   59 1    
    14    5   60 1    
    15    5    6 1    
    16    5   61 1    
    17    6   62 1    
    18    6    7 1    
    19    6   63 1    
    20    7   64 1    
    21    7   65 1    
    22    7    8 1    
    23    8    9 am   BACKBONE|DICT|INTERRES
    24    8   66 1    
    25    9   10 2    
    26    9   11 1    
    27   11   12 1    
    28   11   67 1    
    29   11   68 1    
    30   12   69 1    
    31   12   70 1    
    32   12   13 1    
    33   13   15 am   BACKBONE|DICT|INTERRES
    34   13   14 2    
    35   15   17 1    
    36   15   16 1    
    37   17   71 1    
    38   17   72 1    
    39   17   18 1    
    40   18   73 1    
    41   18   19 1    
    42   18   74 1    
    43   19   20 1    
    44   19   76 1    
    45   19   75 1    
    46   20   78 1    
    47   20   77 1    
    48   20   21 1    
    49   21   79 1    
    50   21   22 1    
    51   21   80 1    
    52   22   81 1    
    53   22   23 am   BACKBONE|DICT|INTERRES
    54   23   24 2    
    55   23   25 1    
    56   25   83 1    
    57   25   26 1    
    58   25   82 1    
    59   26   27 1    
    60   26   84 1    
    61   26   85 1    
    62   27   28 2    
    63   27   29 am   BACKBONE|DICT|INTERRES
    64   29   30 1    
    65   29   31 1    
    66   31   87 1    
    67   31   32 1    
    68   31   86 1    
    69   32   88 1    
    70   32   33 1    
    71   32   89 1    
    72   33   90 1    
    73   33   34 1    
    74   33   91 1    
    75   34   35 1    
    76   34   92 1    
    77   34   93 1    
    78   35   94 1    
    79   35   36 1    
    80   35   95 1    
    81   36   96 1    
    82   36   37 am   BACKBONE|DICT|INTERRES
    83   37   39 1    
    84   37   38 2    
    85   39   40 1    
    86   39   98 1    
    87   39   97 1    
    88   40   99 1    
    89   40   41 1    
    90   40  100 1    
    91   41   43 am   BACKBONE|DICT|INTERRES
    92   41   42 2    
    93   43   44 1    
    94   43   45 1    
    95   45   46 1    
    96   45  101 1    
    97   45  102 1    
    98   46  104 1    
    99   46   47 1    
   100   46  103 1    
   101   47  106 1    
   102   47   48 1    
   103   47  105 1    
   104   48  107 1    
   105   48   49 1    
   106   48  108 1    
   107   49   50 1    
   108   49  110 1    
   109   49  109 1    
   110   50   51 am   BACKBONE|DICT|INTERRES
   111   50  111 1    
   112   51   52 2    
   113   51   53 1    
   114   53   54 1    
   115   53  112 1    
   116   53  113 1    
   117   54  114 1    
   118   54   55 1    
   119   54  115 1    
   120   55   56 2    
@<TRIPOS>SUBSTRUCTURE
     1 UNK         1 GROUP             0       ****    0 ROOT    
@<TRIPOS>MOLECULE
105_c1
112   117    1
SMALL
USER_CHARGES


@<TRIPOS>ATOM
      1 Fe1        -0.0509   -2.0122    1.3292 Fe        1 UNK         0.0000 
      2 O2          0.6509    1.3038   -2.7907 O.2       1 UNK         0.0000 
      3 C3          1.6417    1.7775   -2.2498 C.2       1 UNK         0.0000 
      4 C4          2.7250    0.8719   -1.6998 C.3       1 UNK         0.0000 
      5 C5          2.4294   -0.6338   -1.8334 C.3       1 UNK         0.0000 
      6 C6          1.2023   -0.9939   -1.0311 C.2       1 UNK         0.0000 
      7 O7          1.1222   -0.7404    0.1506 O.co2     1 UNK         0.0000 
      8 N8          0.0953   -1.5690   -1.4471 N.am      1 UNK         0.0000 
      9 O9         -0.7456   -1.6093   -0.4138 O.co2     1 UNK         0.0000 
     10 C10        -0.2127   -2.1126   -2.7600 C.3       1 UNK         0.0000 
     11 C11        -0.7350   -3.5597   -2.6538 C.3       1 UNK         0.0000 
     12 C12        -0.8184   -4.1867   -4.0525 C.3       1 UNK         0.0000 
     13 C13        -1.5065   -5.5615   -4.1648 C.3       1 UNK         0.0000 
     14 C14        -1.0039   -6.6704   -3.2223 C.3       1 UNK         0.0000 
     15 N15        -1.6665   -6.5860   -1.9322 N.am      1 UNK         0.0000 
     16 C16        -1.0388   -6.4915   -0.7301 C.2       1 UNK         0.0000 
     17 O17         0.1816   -6.4458   -0.6624 O.2       1 UNK         0.0000 
     18 C18        -1.8958   -6.4291    0.5186 C.3       1 UNK         0.0000 
     19 C19        -1.1493   -6.1716    1.8381 C.3       1 UNK         0.0000 
     20 C20        -0.4073   -4.8681    1.7585 C.2       1 UNK         0.0000 
     21 O21        -0.9181   -3.8350    1.3752 O.co2     1 UNK         0.0000 
     22 N22         0.8403   -4.6560    2.0729 N.am      1 UNK         0.0000 
     23 O23         1.1087   -3.3947    1.7607 O.co2     1 UNK         0.0000 
     24 C24         1.7852   -5.5091    2.7700 C.3       1 UNK         0.0000 
     25 C25         1.2818   -5.7547    4.2006 C.3       1 UNK         0.0000 
     26 C26         2.4287   -5.9651    5.2051 C.3       1 UNK         0.0000 
     27 C27         1.9340   -6.0254    6.6632 C.3       1 UNK         0.0000 
     28 C28         1.2498   -4.7347    7.1748 C.3       1 UNK         0.0000 
     29 N29         2.1711   -3.6067    7.2871 N.am      1 UNK         0.0000 
     30 C30         2.0461   -2.4044    6.6405 C.2       1 UNK         0.0000 
     31 O31         2.8321   -1.5075    6.9090 O.2       1 UNK         0.0000 
     32 C32         0.9988   -2.1662    5.5743 C.3       1 UNK         0.0000 
     33 C33         0.9462   -0.7502    4.9737 C.3       1 UNK         0.0000 
     34 C34         0.0454   -0.8067    3.7654 C.2       1 UNK         0.0000 
     35 O35         0.2185   -1.4623    2.7612 O.co2     1 UNK         0.0000 
     36 N36        -1.0120   -0.2662    3.4552 N.am      1 UNK         0.0000 
     37 O37        -1.0909   -1.0317    2.3414 O.co2     1 UNK         0.0000 
     38 C38        -1.8599    0.7793    3.9885 C.3       1 UNK         0.0000 
     39 C39        -1.0255    2.0502    4.2215 C.3       1 UNK         0.0000 
     40 C40        -1.8825    3.2526    4.6180 C.3       1 UNK         0.0000 
     41 C41        -1.0042    4.3771    5.1963 C.3       1 UNK         0.0000 
     42 C42        -1.8384    5.6210    5.5157 C.3       1 UNK         0.0000 
     43 N43        -2.1514    6.3579    4.3038 N.am      1 UNK         0.0000 
     44 C44        -1.2433    7.1918    3.7158 C.2       1 UNK         0.0000 
     45 O45        -0.1326    7.3452    4.2065 O.2       1 UNK         0.0000 
     46 C46        -1.6297    8.0161    2.5180 C.3       1 UNK         0.0000 
     47 C47        -1.6499    7.2085    1.2083 C.3       1 UNK         0.0000 
     48 C48        -0.2636    6.8237    0.7095 C.2       1 UNK         0.0000 
     49 O49         0.7212    7.0888    1.3871 O.2       1 UNK         0.0000 
     50 N50        -0.1043    6.2497   -0.5225 N.am      1 UNK         0.0000 
     51 O51        -1.1907    5.9809   -1.2679 O.3       1 UNK         0.0000 
     52 C52         1.2380    6.0167   -1.0589 C.3       1 UNK         0.0000 
     53 C53         1.2489    5.5107   -2.5165 C.3       1 UNK         0.0000 
     54 C54         0.8056    4.0495   -2.6943 C.3       1 UNK         0.0000 
     55 N55         1.7849    3.1259   -2.1449 N.am      1 UNK         0.0000 
     56 H56         2.8744    1.1121   -0.6242 H         1 UNK         0.0000 
     57 H57         3.6725    1.0975   -2.2345 H         1 UNK         0.0000 
     58 H58         3.2915   -1.1984   -1.4181 H         1 UNK         0.0000 
     59 H59         2.3443   -0.8896   -2.9055 H         1 UNK         0.0000 
     60 H60        -0.9995   -1.4936   -3.2423 H         1 UNK         0.0000 
     61 H61         0.6822   -2.0943   -3.4089 H         1 UNK         0.0000 
     62 H62        -1.7320   -3.5466   -2.1622 H         1 UNK         0.0000 
     63 H63        -0.0358   -4.1671   -2.0424 H         1 UNK         0.0000 
     64 H64         0.2230   -4.2803   -4.4328 H         1 UNK         0.0000 
     65 H65        -1.3689   -3.5026   -4.7360 H         1 UNK         0.0000 
     66 H66        -2.6080   -5.4613   -4.0477 H         1 UNK         0.0000 
     67 H67        -1.3237   -5.8901   -5.2117 H         1 UNK         0.0000 
     68 H68         0.1056   -6.6703   -3.1589 H         1 UNK         0.0000 
     69 H69        -1.3153   -7.6430   -3.6615 H         1 UNK         0.0000 
     70 H70        -2.6981   -6.6238   -1.9368 H         1 UNK         0.0000 
     71 H71        -2.6250   -5.5998    0.3814 H         1 UNK         0.0000 
     72 H72        -2.4737   -7.3741    0.6036 H         1 UNK         0.0000 
     73 H73        -0.4634   -7.0114    2.0751 H         1 UNK         0.0000 
     74 H74        -1.9100   -6.0974    2.6443 H         1 UNK         0.0000 
     75 H75         2.7320   -4.9288    2.8347 H         1 UNK         0.0000 
     76 H76         2.0049   -6.4515    2.2250 H         1 UNK         0.0000 
     77 H77         0.7427   -4.8512    4.5013 H         1 UNK         0.0000 
     78 H78         0.5376   -6.5779    4.2268 H         1 UNK         0.0000 
     79 H79         3.1585   -5.1293    5.1285 H         1 UNK         0.0000 
     80 H80         2.9541   -6.9111    4.9519 H         1 UNK         0.0000 
     81 H81         1.2113   -6.8663    6.7456 H         1 UNK         0.0000 
     82 H82         2.7958   -6.2533    7.3270 H         1 UNK         0.0000 
     83 H83         0.8579   -4.9417    8.1935 H         1 UNK         0.0000 
     84 H84         0.3609   -4.5032    6.5643 H         1 UNK         0.0000 
     85 H85         2.9489   -3.7150    7.9568 H         1 UNK         0.0000 
     86 H86        -0.0141   -2.3964    5.9692 H         1 UNK         0.0000 
     87 H87         1.2616   -2.8533    4.7538 H         1 UNK         0.0000 
     88 H88         1.9533   -0.4299    4.6307 H         1 UNK         0.0000 
     89 H89         0.5791   -0.0479    5.7476 H         1 UNK         0.0000 
     90 H90        -2.6776    0.9781    3.2629 H         1 UNK         0.0000 
     91 H91        -2.3051    0.4525    4.9529 H         1 UNK         0.0000 
     92 H92        -0.4478    2.3183    3.3094 H         1 UNK         0.0000 
     93 H93        -0.3084    1.8351    5.0371 H         1 UNK         0.0000 
     94 H94        -2.6028    2.9537    5.4118 H         1 UNK         0.0000 
     95 H95        -2.4557    3.5930    3.7279 H         1 UNK         0.0000 
     96 H96        -0.1663    4.6458    4.5167 H         1 UNK         0.0000 
     97 H97        -0.5682    3.9918    6.1445 H         1 UNK         0.0000 
     98 H98        -2.7707    5.3074    6.0355 H         1 UNK         0.0000 
     99 H99        -1.2961    6.2938    6.2153 H         1 UNK         0.0000 
    100 H100       -3.1137    6.3215    3.9372 H         1 UNK         0.0000 
    101 H101       -0.9189    8.8629    2.3868 H         1 UNK         0.0000 
    102 H102       -2.6258    8.4650    2.7197 H         1 UNK         0.0000 
    103 H103       -2.0880    7.8777    0.4372 H         1 UNK         0.0000 
    104 H104       -2.3019    6.3144    1.3059 H         1 UNK         0.0000 
    105 H105       -1.3669    6.8116   -1.7812 H         1 UNK         0.0000 
    106 H106        1.7650    6.9967   -1.0673 H         1 UNK         0.0000 
    107 H107        1.8092    5.3276   -0.4003 H         1 UNK         0.0000 
    108 H108        0.6062    6.1811   -3.1267 H         1 UNK         0.0000 
    109 H109        2.2811    5.5942   -2.9230 H         1 UNK         0.0000 
    110 H110        0.7272    3.8550   -3.7864 H         1 UNK         0.0000 
    111 H111       -0.1912    3.8781   -2.2367 H         1 UNK         0.0000 
    112 H112        2.6319    3.4948   -1.6851 H         1 UNK         0.0000 
@<TRIPOS>BOND
     1    1    7 nc   
     2    1    9 nc   
     3    1   21 nc   
     4    1   23 nc   
     5    1   35 nc   
     6    1   37 nc   
     7    2    3 2    
     8    3   55 am   BACKBONE|DICT|INTERRES
     9    3    4 1    
    10    4   56 1    
    11    4    5 1    
    12    4   57 1    
    13    5   58 1    
    14    5    6 1    
    15    5   59 1    
    16    6    7 2    
    17    6    8 am   BACKBONE|DICT|INTERRES
    18    8    9 1    
    19    8   10 1    
    20   10   11 1    
    21   10   60 1    
    22   10   61 1    
    23   11   62 1    
    24   11   63 1    
    25   11   12 1    
    26   12   13 1    
    27   12   64 1    
    28   12   65 1    
    29   13   66 1    
    30   13   14 1    
    31   13   67 1    
    32   14   68 1    
    33   14   15 1    
    34   14   69 1    
    35   15   16 am   BACKBONE|DICT|INTERRES
    36   15   70 1    
    37   16   17 2    
    38   16   18 1    
    39   18   72 1    
    40   18   19 1    
    41   18   71 1    
    42   19   73 1    
    43   19   74 1    
    44   19   20 1    
    45   20   21 2    
    46   20   22 am   BACKBONE|DICT|INTERRES
    47   22   24 1    
    48   22   23 1    
    49   24   75 1    
    50   24   25 1    
    51   24   76 1    
    52   25   78 1    
    53   25   77 1    
    54   25   26 1    
    55   26   27 1    
    56   26   79 1    
    57   26   80 1    
    58   27   81 1    
    59   27   28 1    
    60   27   82 1    
    61   28   29 1    
    62   28   83 1    
    63   28   84 1    
    64   29   85 1    
    65   29   30 am   BACKBONE|DICT|INTERRES
    66   30   31 2    
    67   30   32 1    
    68   32   86 1    
    69   32   33 1    
    70   32   87 1    
    71   33   89 1    
    72   33   34 1    
    73   33   88 1    
    74   34   35 2    
    75   34   36 am   BACKBONE|DICT|INTERRES
    76   36   38 1    
    77   36   37 1    
    78   38   39 1    
    79   38   91 1    
    80   38   90 1    
    81   39   40 1    
    82   39   93 1    
    83   39   92 1    
    84   40   41 1    
    85   40   94 1    
    86   40   95 1    
    87   41   42 1    
    88   41   97 1    
    89   41   96 1    
    90   42   98 1    
    91   42   99 1    
    92   42   43 1    
    93   43   44 am   BACKBONE|DICT|INTERRES
    94   43  100 1    
    95   44   45 2    
    96   44   46 1    
    97   46  102 1    
    98   46   47 1    
    99   46  101 1    
   100   47  104 1    
   101   47   48 1    
   102   47  103 1    
   103   48   49 2    
   104   48   50 am   BACKBONE|DICT|INTERRES
   105   50   51 1    
   106   50   52 1    
   107   51  105 1    
   108   52  107 1    
   109   52   53 1    
   110   52  106 1    
   111   53   54 1    
   112   53  108 1    
   113   53  109 1    
   114   54  111 1    
   115   54   55 1    
   116   54  110 1    
   117   55  112 1    
@<TRIPOS>SUBSTRUCTURE
     1 UNK         1 GROUP             0       ****    0 ROOT    
@<TRIPOS>MOLECULE
105_c2
112   117    1
SMALL
USER_CHARGES


@<TRIPOS>ATOM
      1 Fe1        -0.1168   -3.6712    0.5121 Fe        1 UNK         0.0000 
      2 O2          0.7822   -3.9465    6.0553 O.2       1 UNK         0.0000 
      3 C3         -0.3739   -4.1132    5.6775 C.2       1 UNK         0.0000 
      4 C4         -1.3522   -2.9255    5.6840 C.3       1 UNK         0.0000 
      5 C5         -1.9291   -2.3977    4.3295 C.3       1 UNK         0.0000 
      6 C6         -1.0648   -2.4018    3.0394 C.2       1 UNK         0.0000 
      7 O7         -1.4254   -2.9839    2.0088 O.co2     1 UNK         0.0000 
      8 N8          0.1499   -1.8354    2.9071 N.am      1 UNK         0.0000 
      9 O9          0.8358   -2.0537    1.7711 O.co2     1 UNK         0.0000 
     10 C10         0.6477   -0.7814    3.8178 C.3       1 UNK         0.0000 
     11 C11         1.9694   -0.0811    3.4256 C.3       1 UNK         0.0000 
     12 C12         2.3879    1.0531    4.3866 C.3       1 UNK         0.0000 
     13 C13         1.5076    2.3258    4.3262 C.3       1 UNK         0.0000 
     14 C14         1.7495    3.1697    3.0614 C.3       1 UNK         0.0000 
     15 N15         1.0015    4.4294    3.0363 N.am      1 UNK         0.0000 
     16 C16         1.2632    5.4281    2.1804 C.2       1 UNK         0.0000 
     17 O17         2.1448    5.3473    1.3321 O.2       1 UNK         0.0000 
     18 C18         0.3537    6.6689    2.2688 C.3       1 UNK         0.0000 
     19 C19         0.8826    7.9945    1.6410 C.3       1 UNK         0.0000 
     20 C20         1.1961    8.0187    0.1260 C.2       1 UNK         0.0000 
     21 O21         2.3456    8.2998   -0.2135 O.2       1 UNK         0.0000 
     22 N22         0.2208    7.7746   -0.7951 N.am      1 UNK         0.0000 
     23 O23        -1.0782    7.4853   -0.3298 O.3       1 UNK         0.0000 
     24 C24         0.4281    7.5982   -2.2397 C.3       1 UNK         0.0000 
     25 C25         1.2476    6.3465   -2.6188 C.3       1 UNK         0.0000 
     26 C26         0.5538    5.0107   -2.3102 C.3       1 UNK         0.0000 
     27 C27         1.4435    3.8015   -2.6521 C.3       1 UNK         0.0000 
     28 C28         0.6631    2.4960   -2.5068 C.3       1 UNK         0.0000 
     29 N29         1.4355    1.3108   -2.8587 N.am      1 UNK         0.0000 
     30 C30         0.8537    0.1226   -3.0625 C.2       1 UNK         0.0000 
     31 O31        -0.3616   -0.0352   -2.9860 O.2       1 UNK         0.0000 
     32 C32         1.7753   -1.0705   -3.3748 C.3       1 UNK         0.0000 
     33 C33         1.0429   -2.4211   -3.6183 C.3       1 UNK         0.0000 
     34 C34         0.3163   -2.9578   -2.3611 C.2       1 UNK         0.0000 
     35 O35         0.6542   -2.6300   -1.2226 O.co2     1 UNK         0.0000 
     36 N36        -0.7199   -3.8108   -2.4005 N.am      1 UNK         0.0000 
     37 O37        -1.3165   -4.1445   -1.2624 O.co2     1 UNK         0.0000 
     38 C38        -1.1535   -4.5969   -3.5630 C.3       1 UNK         0.0000 
     39 C39        -0.6265   -6.0504   -3.4808 C.3       1 UNK         0.0000 
     40 C40         0.9077   -6.1522   -3.6593 C.3       1 UNK         0.0000 
     41 C41         1.4169   -7.5565   -4.0327 C.3       1 UNK         0.0000 
     42 C42         1.2606   -8.6482   -2.9573 C.3       1 UNK         0.0000 
     43 N43         2.0945   -8.4212   -1.7688 N.am      1 UNK         0.0000 
     44 C44         1.6384   -8.3693   -0.5105 C.2       1 UNK         0.0000 
     45 O45         0.4588   -8.5350   -0.2161 O.2       1 UNK         0.0000 
     46 C46         2.6639   -8.1021    0.6136 C.3       1 UNK         0.0000 
     47 C47         2.8501   -6.6373    1.1178 C.3       1 UNK         0.0000 
     48 C48         1.6447   -5.6885    1.0465 C.2       1 UNK         0.0000 
     49 O49         1.6462   -4.5881    0.4892 O.co2     1 UNK         0.0000 
     50 N50         0.4244   -5.9656    1.5386 N.am      1 UNK         0.0000 
     51 O51        -0.5211   -5.1303    1.1795 O.co2     1 UNK         0.0000 
     52 C52         0.0759   -6.8634    2.6507 C.3       1 UNK         0.0000 
     53 C53         0.8507   -6.5695    3.9605 C.3       1 UNK         0.0000 
     54 C54        -0.0552   -6.5363    5.2065 C.3       1 UNK         0.0000 
     55 N55        -0.8530   -5.3060    5.2925 N.am      1 UNK         0.0000 
     56 H56        -2.1590   -3.1429    6.3818 H         1 UNK         0.0000 
     57 H57        -0.8569   -2.0842    6.1623 H         1 UNK         0.0000 
     58 H58        -2.7879   -3.0163    4.0939 H         1 UNK         0.0000 
     59 H59        -2.4137   -1.4379    4.4864 H         1 UNK         0.0000 
     60 H60        -0.1210   -0.0112    3.9140 H         1 UNK         0.0000 
     61 H61         0.7456   -1.1920    4.8227 H         1 UNK         0.0000 
     62 H62         1.8838    0.3061    2.4096 H         1 UNK         0.0000 
     63 H63         2.7622   -0.8307    3.3961 H         1 UNK         0.0000 
     64 H64         3.4250    1.3290    4.1826 H         1 UNK         0.0000 
     65 H65         2.3872    0.6529    5.4013 H         1 UNK         0.0000 
     66 H66         0.4509    2.0608    4.3971 H         1 UNK         0.0000 
     67 H67         1.7272    2.9332    5.2046 H         1 UNK         0.0000 
     68 H68         2.8192    3.3831    2.9890 H         1 UNK         0.0000 
     69 H69         1.5246    2.5882    2.1652 H         1 UNK         0.0000 
     70 H70         0.2034    4.5148    3.6419 H         1 UNK         0.0000 
     71 H71         0.1973    6.8716    3.3281 H         1 UNK         0.0000 
     72 H72        -0.6466    6.4319    1.9140 H         1 UNK         0.0000 
     73 H73         1.7413    8.3497    2.2116 H         1 UNK         0.0000 
     74 H74         0.1405    8.7723    1.8177 H         1 UNK         0.0000 
     75 H75        -1.5729    8.2849   -0.5401 H         1 UNK         0.0000 
     76 H76        -0.5490    7.5301   -2.7247 H         1 UNK         0.0000 
     77 H77         0.9028    8.4868   -2.6569 H         1 UNK         0.0000 
     78 H78         2.2227    6.3843   -2.1275 H         1 UNK         0.0000 
     79 H79         1.4453    6.3836   -3.6905 H         1 UNK         0.0000 
     80 H80        -0.3797    4.9605   -2.8778 H         1 UNK         0.0000 
     81 H81         0.2759    4.9696   -1.2524 H         1 UNK         0.0000 
     82 H82         2.3100    3.7970   -1.9867 H         1 UNK         0.0000 
     83 H83         1.8213    3.8933   -3.6726 H         1 UNK         0.0000 
     84 H84        -0.2291    2.5553   -3.1356 H         1 UNK         0.0000 
     85 H85         0.2828    2.4039   -1.4874 H         1 UNK         0.0000 
     86 H86         2.4370    1.3925   -2.9060 H         1 UNK         0.0000 
     87 H87         2.3277   -0.8111   -4.2756 H         1 UNK         0.0000 
     88 H88         2.5409   -1.1917   -2.6101 H         1 UNK         0.0000 
     89 H89         1.7836   -3.1624   -3.9116 H         1 UNK         0.0000 
     90 H90         0.4053   -2.3372   -4.4946 H         1 UNK         0.0000 
     91 H91        -2.2470   -4.5903   -3.5998 H         1 UNK         0.0000 
     92 H92        -0.8435   -4.1605   -4.5161 H         1 UNK         0.0000 
     93 H93        -1.1329   -6.6540   -4.2347 H         1 UNK         0.0000 
     94 H94        -0.9201   -6.4693   -2.5158 H         1 UNK         0.0000 
     95 H95         1.2164   -5.4628   -4.4465 H         1 UNK         0.0000 
     96 H96         1.4031   -5.8100   -2.7479 H         1 UNK         0.0000 
     97 H97         0.8940   -7.8710   -4.9363 H         1 UNK         0.0000 
     98 H98         2.4642   -7.4899   -4.3212 H         1 UNK         0.0000 
     99 H99         1.5201   -9.6150   -3.3836 H         1 UNK         0.0000 
    100 H100        0.2051   -8.7140   -2.6800 H         1 UNK         0.0000 
    101 H101        3.0915   -8.4417   -1.9087 H         1 UNK         0.0000 
    102 H102        3.6278   -8.5591    0.3968 H         1 UNK         0.0000 
    103 H103        2.3299   -8.6834    1.4713 H         1 UNK         0.0000 
    104 H104        3.2930   -6.6298    2.1114 H         1 UNK         0.0000 
    105 H105        3.6097   -6.1654    0.4983 H         1 UNK         0.0000 
    106 H106       -1.0018   -6.7791    2.8482 H         1 UNK         0.0000 
    107 H107        0.1952   -7.9027    2.3524 H         1 UNK         0.0000 
    108 H108        1.6496   -7.3049    4.0778 H         1 UNK         0.0000 
    109 H109        1.3632   -5.6082    3.9050 H         1 UNK         0.0000 
    110 H110        0.5240   -6.7038    6.1169 H         1 UNK         0.0000 
    111 H111       -0.7529   -7.3771    5.1478 H         1 UNK         0.0000 
    112 H112       -1.8284   -5.3715    5.0566 H         1 UNK         0.0000 
@<TRIPOS>BOND
     1    1    7 nc   
     2    1    9 nc   
     3    1   35 nc   
     4    1   37 nc   
     5    1   49 nc   
     6    1   51 nc   
     7    2    3 2    
     8    3    4 1    
     9    3   55 am   BACKBONE|DICT|INTERRES
    10    4   57 1    
    11    4   56 1    
    12    4    5 1    
    13    5   59 1    
    14    5    6 1    
    15    5   58 1    
    16    6    7 2    
    17    6    8 am   BACKBONE|DICT|INTERRES
    18    8   10 1    
    19    8    9 1    
    20   10   61 1    
    21   10   11 1    
    22   10   60 1    
    23   11   63 1    
    24   11   12 1    
    25   11   62 1    
    26   12   65 1    
    27   12   13 1    
    28   12   64 1    
    29   13   66 1    
    30   13   67 1    
    31   13   14 1    
    32   14   15 1    
    33   14   68 1    
    34   14   69 1    
    35   15   70 1    
    36   15   16 am   BACKBONE|DICT|INTERRES
    37   16   18 1    
    38   16   17 2    
    39   18   71 1    
    40   18   19 1    
    41   18   72 1    
    42   19   74 1    
    43   19   73 1    
    44   19   20 1    
    45   20   21 2    
    46   20   22 am   BACKBONE|DICT|INTERRES
    47   22   23 1    
    48   22   24 1    
    49   23   75 1    
    50   24   25 1    
    51   24   76 1    
    52   24   77 1    
    53   25   26 1    
    54   25   78 1    
    55   25   79 1    
    56   26   81 1    
    57   26   27 1    
    58   26   80 1    
    59   27   28 1    
    60   27   82 1    
    61   27   83 1    
    62   28   85 1    
    63   28   29 1    
    64   28   84 1    
    65   29   30 am   BACKBONE|DICT|INTERRES
    66   29   86 1    
    67   30   31 2    
    68   30   32 1    
    69   32   88 1    
    70   32   33 1    
    71   32   87 1    
    72   33   34 1    
    73   33   89 1    
    74   33   90 1    
    75   34   36 am   BACKBONE|DICT|INTERRES
    76   34   35 2    
    77   36   37 1    
    78   36   38 1    
    79   38   39 1    
    80   38   91 1    
    81   38   92 1    
    82   39   94 1    
    83   39   40 1    
    84   39   93 1    
    85   40   96 1    
    86   40   41 1    
    87   40   95 1    
    88   41   42 1    
    89   41   97 1    
    90   41   98 1    
    91   42  100 1    
    92   42   43 1    
    93   42   99 1    
    94   43   44 am   BACKBONE|DICT|INTERRES
    95   43  101 1    
    96   44   45 2    
    97   44   46 1    
    98   46   47 1    
    99   46  103 1    
   100   46  102 1    
   101   47  104 1    
   102   47   48 1    
   103   47  105 1    
   104   48   50 am   BACKBONE|DICT|INTERRES
   105   48   49 2    
   106   50   52 1    
   107   50   51 1    
   108   52  106 1    
   109   52   53 1    
   110   52  107 1    
   111   53  109 1    
   112   53  108 1    
   113   53   54 1    
   114   54   55 1    
   115   54  110 1    
   116   54  111 1    
   117   55  112 1    
@<TRIPOS>SUBSTRUCTURE
     1 UNK         1 GROUP             0       ****    0 ROOT    
@<TRIPOS>MOLECULE
105_c3
112   117    1
SMALL
USER_CHARGES


@<TRIPOS>ATOM
      1 Fe1         0.3017   -1.9275    2.3334 Fe        1 UNK         0.0000 
      2 O2          1.0594   -7.0800    5.3834 O.2       1 UNK         0.0000 
      3 C3          1.7902   -6.0992    5.3427 C.2       1 UNK         0.0000 
      4 C4          2.6531   -5.8750    4.0889 C.3       1 UNK         0.0000 
      5 C5          1.8590   -5.9308    2.7509 C.3       1 UNK         0.0000 
      6 C6          0.9582   -4.6948    2.5650 C.2       1 UNK         0.0000 
      7 O7          1.4192   -3.5565    2.4198 O.co2     1 UNK         0.0000 
      8 N8         -0.3890   -4.7433    2.6287 N.am      1 UNK         0.0000 
      9 O9         -1.0598   -3.6118    2.7653 O.co2     1 UNK         0.0000 
     10 C10        -1.2178   -5.9168    2.2980 C.3       1 UNK         0.0000 
     11 C11        -2.7395   -5.6402    2.0807 C.3       1 UNK         0.0000 
     12 C12        -3.5420   -6.7859    1.4440 C.3       1 UNK         0.0000 
     13 C13        -3.1812   -7.1077   -0.0235 C.3       1 UNK         0.0000 
     14 C14        -3.5166   -6.0038   -1.0495 C.3       1 UNK         0.0000 
     15 N15        -2.4574   -5.0156   -1.2909 N.am      1 UNK         0.0000 
     16 C16        -2.6589   -3.6925   -1.4228 C.2       1 UNK         0.0000 
     17 O17        -3.7112   -3.1353   -1.1259 O.2       1 UNK         0.0000 
     18 C18        -1.5534   -2.8897   -2.1299 C.3       1 UNK         0.0000 
     19 C19        -1.3055   -1.4267   -1.6726 C.3       1 UNK         0.0000 
     20 C20        -0.4188   -1.3123   -0.4268 C.2       1 UNK         0.0000 
     21 O21        -0.7737   -1.7190    0.6743 O.co2     1 UNK         0.0000 
     22 N22         0.8188   -0.7715   -0.3803 N.am      1 UNK         0.0000 
     23 O23         1.4591   -0.7684    0.7872 O.co2     1 UNK         0.0000 
     24 C24         1.4834   -0.0684   -1.4721 C.3       1 UNK         0.0000 
     25 C25         0.8761    1.3282   -1.6682 C.3       1 UNK         0.0000 
     26 C26         1.5294    2.1062   -2.8175 C.3       1 UNK         0.0000 
     27 C27         0.7426    3.3758   -3.1856 C.3       1 UNK         0.0000 
     28 C28         0.6951    4.4431   -2.0762 C.3       1 UNK         0.0000 
     29 N29        -0.1935    5.5459   -2.4345 N.am      1 UNK         0.0000 
     30 C30         0.0973    6.8254   -2.6882 C.2       1 UNK         0.0000 
     31 O31        -0.8043    7.5977   -2.9928 O.2       1 UNK         0.0000 
     32 C32         1.5378    7.3564   -2.5993 C.3       1 UNK         0.0000 
     33 C33         1.8078    8.2546   -1.3588 C.3       1 UNK         0.0000 
     34 C34         1.8638    7.4848   -0.0193 C.2       1 UNK         0.0000 
     35 O35         2.6493    6.5368    0.0573 O.2       1 UNK         0.0000 
     36 N36         1.0505    7.8196    1.0238 N.am      1 UNK         0.0000 
     37 O37         0.0196    8.7537    0.7611 O.3       1 UNK         0.0000 
     38 C38         0.8167    6.8858    2.1430 C.3       1 UNK         0.0000 
     39 C39        -0.2400    7.2985    3.1955 C.3       1 UNK         0.0000 
     40 C40        -0.3365    6.3074    4.3764 C.3       1 UNK         0.0000 
     41 C41        -0.9245    4.9237    4.0163 C.3       1 UNK         0.0000 
     42 C42        -0.9827    3.9870    5.2304 C.3       1 UNK         0.0000 
     43 N43        -1.7052    2.7518    4.9525 N.am      1 UNK         0.0000 
     44 C44        -1.9352    1.8133    5.8752 C.2       1 UNK         0.0000 
     45 O45        -1.5465    1.8999    7.0349 O.2       1 UNK         0.0000 
     46 C46        -2.7078    0.5709    5.4297 C.3       1 UNK         0.0000 
     47 C47        -1.9131   -0.7435    5.6244 C.3       1 UNK         0.0000 
     48 C48        -0.8070   -0.9209    4.5807 C.2       1 UNK         0.0000 
     49 O49        -1.0372   -0.8465    3.3642 O.co2     1 UNK         0.0000 
     50 N50         0.4711   -1.3132    4.8220 N.am      1 UNK         0.0000 
     51 O51         1.2099   -1.3856    3.7258 O.co2     1 UNK         0.0000 
     52 C52         0.8199   -2.3040    5.8687 C.3       1 UNK         0.0000 
     53 C53         2.3029   -2.8079    5.8604 C.3       1 UNK         0.0000 
     54 C54         2.6304   -4.0757    6.6713 C.3       1 UNK         0.0000 
     55 N55         1.8046   -5.2557    6.3852 N.am      1 UNK         0.0000 
     56 H56         3.3162   -5.0145    4.1371 H         1 UNK         0.0000 
     57 H57         3.3506   -6.7087    4.0978 H         1 UNK         0.0000 
     58 H58         2.5804   -5.9327    1.9333 H         1 UNK         0.0000 
     59 H59         1.3475   -6.8870    2.6316 H         1 UNK         0.0000 
     60 H60        -1.0858   -6.6901    3.0578 H         1 UNK         0.0000 
     61 H61        -0.8225   -6.3523    1.3794 H         1 UNK         0.0000 
     62 H62        -2.8841   -4.7453    1.4688 H         1 UNK         0.0000 
     63 H63        -3.1813   -5.3900    3.0502 H         1 UNK         0.0000 
     64 H64        -3.4136   -7.6771    2.0618 H         1 UNK         0.0000 
     65 H65        -4.6047   -6.5390    1.4941 H         1 UNK         0.0000 
     66 H66        -2.1430   -7.4246   -0.1109 H         1 UNK         0.0000 
     67 H67        -3.7640   -7.9879   -0.2897 H         1 UNK         0.0000 
     68 H68        -3.7286   -6.4767   -2.0075 H         1 UNK         0.0000 
     69 H69        -4.4630   -5.5295   -0.7748 H         1 UNK         0.0000 
     70 H70        -1.5372   -5.3723   -1.4836 H         1 UNK         0.0000 
     71 H71        -0.6248   -3.4414   -2.2734 H         1 UNK         0.0000 
     72 H72        -1.9703   -2.7994   -3.1337 H         1 UNK         0.0000 
     73 H73        -0.8054   -0.9115   -2.4882 H         1 UNK         0.0000 
     74 H74        -2.2331   -0.8740   -1.5341 H         1 UNK         0.0000 
     75 H75         2.5559    0.0310   -1.2788 H         1 UNK         0.0000 
     76 H76         1.4339   -0.6516   -2.3936 H         1 UNK         0.0000 
     77 H77        -0.1931    1.2302   -1.8712 H         1 UNK         0.0000 
     78 H78         0.9852    1.8793   -0.7317 H         1 UNK         0.0000 
     79 H79         1.5872    1.4624   -3.6975 H         1 UNK         0.0000 
     80 H80         2.5587    2.3542   -2.5481 H         1 UNK         0.0000 
     81 H81         1.1867    3.8087   -4.0823 H         1 UNK         0.0000 
     82 H82        -0.2737    3.0902   -3.4657 H         1 UNK         0.0000 
     83 H83         1.7097    4.7505   -1.8157 H         1 UNK         0.0000 
     84 H84         0.3145    4.0068   -1.1521 H         1 UNK         0.0000 
     85 H85        -1.1773    5.3455   -2.5101 H         1 UNK         0.0000 
     86 H86         1.6500    7.9856   -3.4807 H         1 UNK         0.0000 
     87 H87         2.3167    6.6123   -2.7528 H         1 UNK         0.0000 
     88 H88         1.1554    9.1282   -1.3626 H         1 UNK         0.0000 
     89 H89         2.7993    8.6897   -1.4844 H         1 UNK         0.0000 
     90 H90         0.2487    9.5158    1.3028 H         1 UNK         0.0000 
     91 H91         0.5012    5.9319    1.7146 H         1 UNK         0.0000 
     92 H92         1.7676    6.6809    2.6470 H         1 UNK         0.0000 
     93 H93        -0.0058    8.2886    3.5893 H         1 UNK         0.0000 
     94 H94        -1.2191    7.3773    2.7168 H         1 UNK         0.0000 
     95 H95        -0.9514    6.7563    5.1591 H         1 UNK         0.0000 
     96 H96         0.6557    6.1811    4.8170 H         1 UNK         0.0000 
     97 H97        -1.9247    5.0543    3.5961 H         1 UNK         0.0000 
     98 H98        -0.3155    4.4516    3.2427 H         1 UNK         0.0000 
     99 H99         0.0302    3.7693    5.5747 H         1 UNK         0.0000 
    100 H100       -1.4610    4.5031    6.0655 H         1 UNK         0.0000 
    101 H101       -2.0200    2.5911    4.0122 H         1 UNK         0.0000 
    102 H102       -3.1251    0.6447    4.4247 H         1 UNK         0.0000 
    103 H103       -3.5881    0.5433    6.0707 H         1 UNK         0.0000 
    104 H104       -2.6061   -1.5669    5.4462 H         1 UNK         0.0000 
    105 H105       -1.6017   -0.8878    6.6563 H         1 UNK         0.0000 
    106 H106        0.5457   -1.9406    6.8611 H         1 UNK         0.0000 
    107 H107        0.1825   -3.1789    5.7101 H         1 UNK         0.0000 
    108 H108        2.6368   -3.0088    4.8456 H         1 UNK         0.0000 
    109 H109        2.9420   -1.9947    6.2062 H         1 UNK         0.0000 
    110 H110        3.6862   -4.3341    6.5772 H         1 UNK         0.0000 
    111 H111        2.4535   -3.8521    7.7228 H         1 UNK         0.0000 
    112 H112        1.1795   -5.5499    7.1161 H         1 UNK         0.0000 
@<TRIPOS>BOND
     1    1    7 nc   
     2    1    9 nc   
     3    1   21 nc   
     4    1   23 nc   
     5    1   49 nc   
     6    1   51 nc   
     7    2    3 2    
     8    3   55 am   BACKBONE|DICT|INTERRES
     9    3    4 1    
    10    4   56 1    
    11    4    5 1    
    12    4   57 1    
    13    5    6 1    
    14    5   58 1    
    15    5   59 1    
    16    6    7 2    
    17    6    8 am   BACKBONE|DICT|INTERRES
    18    8    9 1    
    19    8   10 1    
    20   10   60 1    
    21   10   11 1    
    22   10   61 1    
    23   11   63 1    
    24   11   12 1    
    25   11   62 1    
    26   12   65 1    
    27   12   64 1    
    28   12   13 1    
    29   13   14 1    
    30   13   66 1    
    31   13   67 1    
    32   14   69 1    
    33   14   15 1    
    34   14   68 1    
    35   15   16 am   BACKBONE|DICT|INTERRES
    36   15   70 1    
    37   16   17 2    
    38   16   18 1    
    39   18   19 1    
    40   18   71 1    
    41   18   72 1    
    42   19   74 1    
    43   19   20 1    
    44   19   73 1    
    45   20   22 am   BACKBONE|DICT|INTERRES
    46   20   21 2    
    47   22   23 1    
    48   22   24 1    
    49   24   75 1    
    50   24   25 1    
    51   24   76 1    
    52   25   78 1    
    53   25   26 1    
    54   25   77 1    
    55   26   80 1    
    56   26   27 1    
    57   26   79 1    
    58   27   28 1    
    59   27   81 1    
    60   27   82 1    
    61   28   83 1    
    62   28   84 1    
    63   28   29 1    
    64   29   30 am   BACKBONE|DICT|INTERRES
    65   29   85 1    
    66   30   32 1    
    67   30   31 2    
    68   32   33 1    
    69   32   86 1    
    70   32   87 1    
    71   33   34 1    
    72   33   88 1    
    73   33   89 1    
    74   34   35 2    
    75   34   36 am   BACKBONE|DICT|INTERRES
    76   36   38 1    
    77   36   37 1    
    78   37   90 1    
    79   38   92 1    
    80   38   39 1    
    81   38   91 1    
    82   39   93 1    
    83   39   40 1    
    84   39   94 1    
    85   40   96 1    
    86   40   95 1    
    87   40   41 1    
    88   41   42 1    
    89   41   97 1    
    90   41   98 1    
    91   42   99 1    
    92   42  100 1    
    93   42   43 1    
    94   43   44 am   BACKBONE|DICT|INTERRES
    95   43  101 1    
    96   44   45 2    
    97   44   46 1    
    98   46   47 1    
    99   46  103 1    
   100   46  102 1    
   101   47  105 1    
   102   47   48 1    
   103   47  104 1    
   104   48   50 am   BACKBONE|DICT|INTERRES
   105   48   49 2    
   106   50   52 1    
   107   50   51 1    
   108   52  106 1    
   109   52   53 1    
   110   52  107 1    
   111   53  109 1    
   112   53   54 1    
   113   53  108 1    
   114   54  111 1    
   115   54   55 1    
   116   54  110 1    
   117   55  112 1    
@<TRIPOS>SUBSTRUCTURE
     1 UNK         1 GROUP             0       ****    0 ROOT    
@<TRIPOS>MOLECULE
105_c4
112   117    1
SMALL
USER_CHARGES


@<TRIPOS>ATOM
      1 Fe1         0.0310    1.8670   -1.4207 Fe        1 UNK         0.0000 
      2 O2          0.0267   -4.5805   -5.2439 O.2       1 UNK         0.0000 
      3 C3         -0.9438   -5.1258   -4.7262 C.2       1 UNK         0.0000 
      4 C4         -0.9492   -6.6473   -4.5456 C.3       1 UNK         0.0000 
      5 C5          0.2602   -7.2335   -3.7648 C.3       1 UNK         0.0000 
      6 C6          0.1224   -7.2969   -2.2262 C.2       1 UNK         0.0000 
      7 O7         -0.8169   -6.7117   -1.6804 O.2       1 UNK         0.0000 
      8 N8          0.9970   -8.0674   -1.5224 N.am      1 UNK         0.0000 
      9 O9          2.1363   -8.5563   -2.2011 O.3       1 UNK         0.0000 
     10 C10         0.8968   -8.4648   -0.1112 C.3       1 UNK         0.0000 
     11 C11         2.0484   -7.9761    0.7942 C.3       1 UNK         0.0000 
     12 C12         1.8847   -6.5350    1.3107 C.3       1 UNK         0.0000 
     13 C13         3.0643   -6.1008    2.2133 C.3       1 UNK         0.0000 
     14 C14         2.7652   -4.9293    3.1653 C.3       1 UNK         0.0000 
     15 N15         2.2537   -3.7671    2.4527 N.am      1 UNK         0.0000 
     16 C16         2.6854   -2.5073    2.5719 C.2       1 UNK         0.0000 
     17 O17         3.6122   -2.1671    3.3005 O.2       1 UNK         0.0000 
     18 C18         1.9222   -1.5151    1.7067 C.3       1 UNK         0.0000 
     19 C19         2.1664   -0.0194    2.0171 C.3       1 UNK         0.0000 
     20 C20         1.2641    0.7524    1.0540 C.2       1 UNK         0.0000 
     21 O21         1.5600    0.7404   -0.1455 O.co2     1 UNK         0.0000 
     22 N22         0.0679    1.2990    1.4019 N.am      1 UNK         0.0000 
     23 O23        -0.8501    1.5957    0.4814 O.co2     1 UNK         0.0000 
     24 C24        -0.3103    1.7354    2.7560 C.3       1 UNK         0.0000 
     25 C25        -0.9077    3.1657    2.7900 C.3       1 UNK         0.0000 
     26 C26        -1.1160    3.7420    4.1928 C.3       1 UNK         0.0000 
     27 C27        -1.9684    5.0330    4.2262 C.3       1 UNK         0.0000 
     28 C28        -1.5115    6.1775    3.2898 C.3       1 UNK         0.0000 
     29 N29        -2.1064    6.0974    1.9477 N.am      1 UNK         0.0000 
     30 C30        -1.4715    6.3500    0.7924 C.2       1 UNK         0.0000 
     31 O31        -0.2903    6.6783    0.7457 O.2       1 UNK         0.0000 
     32 C32        -2.3014    6.2227   -0.4990 C.3       1 UNK         0.0000 
     33 C33        -1.4948    6.0561   -1.8241 C.3       1 UNK         0.0000 
     34 C34        -0.7436    4.7149   -1.8827 C.2       1 UNK         0.0000 
     35 O35        -1.3651    3.6482   -1.7534 O.co2     1 UNK         0.0000 
     36 N36         0.6104    4.6513   -1.9481 N.am      1 UNK         0.0000 
     37 O37         1.2482    3.5454   -1.5884 O.co2     1 UNK         0.0000 
     38 C38         1.4698    5.6898   -2.5798 C.3       1 UNK         0.0000 
     39 C39         2.8819    5.2022   -3.0379 C.3       1 UNK         0.0000 
     40 C40         3.7626    6.1804   -3.8379 C.3       1 UNK         0.0000 
     41 C41         3.2600    6.5868   -5.2409 C.3       1 UNK         0.0000 
     42 C42         3.2210    5.4653   -6.3064 C.3       1 UNK         0.0000 
     43 N43         2.1251    4.5105   -6.1040 N.am      1 UNK         0.0000 
     44 C44         2.2125    3.1687   -6.1142 C.2       1 UNK         0.0000 
     45 O45         3.2648    2.5723   -6.3165 O.2       1 UNK         0.0000 
     46 C46         0.8984    2.3995   -5.8823 C.3       1 UNK         0.0000 
     47 C47         0.9958    0.9226   -5.3555 C.3       1 UNK         0.0000 
     48 C48         0.4356    0.8057   -3.9356 C.2       1 UNK         0.0000 
     49 O49         1.0278    1.3089   -2.9862 O.co2     1 UNK         0.0000 
     50 N50        -0.8051    0.3604   -3.6287 N.am      1 UNK         0.0000 
     51 O51        -1.3300    0.6104   -2.4264 O.co2     1 UNK         0.0000 
     52 C52        -1.5754   -0.5920   -4.4427 C.3       1 UNK         0.0000 
     53 C53        -1.4276   -2.0403   -3.9141 C.3       1 UNK         0.0000 
     54 C54        -2.3105   -3.0442   -4.6776 C.3       1 UNK         0.0000 
     55 N55        -2.0568   -4.4593   -4.3853 N.am      1 UNK         0.0000 
     56 H56        -1.9036   -7.0427   -4.1952 H         1 UNK         0.0000 
     57 H57        -0.8658   -7.0063   -5.5724 H         1 UNK         0.0000 
     58 H58         1.2008   -6.7688   -4.0643 H         1 UNK         0.0000 
     59 H59         0.3283   -8.2780   -4.0695 H         1 UNK         0.0000 
     60 H60         2.0152   -9.5097   -2.2078 H         1 UNK         0.0000 
     61 H61        -0.0591   -8.1488    0.3139 H         1 UNK         0.0000 
     62 H62         0.8666   -9.5546   -0.0801 H         1 UNK         0.0000 
     63 H63         3.0089   -8.0955    0.2896 H         1 UNK         0.0000 
     64 H64         2.0852   -8.6278    1.6688 H         1 UNK         0.0000 
     65 H65         0.9477   -6.4685    1.8677 H         1 UNK         0.0000 
     66 H66         1.7895   -5.8471    0.4679 H         1 UNK         0.0000 
     67 H67         3.9247   -5.8536    1.5891 H         1 UNK         0.0000 
     68 H68         3.3859   -6.9392    2.8318 H         1 UNK         0.0000 
     69 H69         1.9806   -5.2191    3.8669 H         1 UNK         0.0000 
     70 H70         3.6491   -4.6949    3.7650 H         1 UNK         0.0000 
     71 H71         1.4669   -3.9258    1.8448 H         1 UNK         0.0000 
     72 H72         0.8617   -1.7482    1.8324 H         1 UNK         0.0000 
     73 H73         2.2301   -1.7427    0.6844 H         1 UNK         0.0000 
     74 H74         3.1926    0.2625    1.7793 H         1 UNK         0.0000 
     75 H75         1.9541    0.2201    3.0528 H         1 UNK         0.0000 
     76 H76        -1.0389    1.0257    3.1498 H         1 UNK         0.0000 
     77 H77         0.5270    1.6928    3.4558 H         1 UNK         0.0000 
     78 H78        -0.2613    3.8308    2.2162 H         1 UNK         0.0000 
     79 H79        -1.8701    3.1534    2.2793 H         1 UNK         0.0000 
     80 H80        -1.5999    2.9926    4.8218 H         1 UNK         0.0000 
     81 H81        -0.1398    3.9367    4.6389 H         1 UNK         0.0000 
     82 H82        -1.9578    5.4026    5.2535 H         1 UNK         0.0000 
     83 H83        -3.0144    4.7906    4.0270 H         1 UNK         0.0000 
     84 H84        -1.7823    7.1388    3.7308 H         1 UNK         0.0000 
     85 H85        -0.4184    6.1940    3.2493 H         1 UNK         0.0000 
     86 H86        -3.0917    5.8971    1.9053 H         1 UNK         0.0000 
     87 H87        -2.8701    7.1462   -0.5701 H         1 UNK         0.0000 
     88 H88        -3.0673    5.4548   -0.4130 H         1 UNK         0.0000 
     89 H89        -0.8765    6.9336   -2.0204 H         1 UNK         0.0000 
     90 H90        -2.2073    6.0523   -2.6474 H         1 UNK         0.0000 
     91 H91         0.9526    6.1234   -3.4402 H         1 UNK         0.0000 
     92 H92         1.5892    6.5271   -1.8904 H         1 UNK         0.0000 
     93 H93         3.4402    4.9433   -2.1391 H         1 UNK         0.0000 
     94 H94         2.7909    4.2693   -3.5882 H         1 UNK         0.0000 
     95 H95         4.7498    5.7270   -3.9532 H         1 UNK         0.0000 
     96 H96         3.9288    7.0761   -3.2390 H         1 UNK         0.0000 
     97 H97         3.9350    7.3619   -5.6104 H         1 UNK         0.0000 
     98 H98         2.2872    7.0711   -5.1658 H         1 UNK         0.0000 
     99 H99         3.1249    5.9075   -7.3009 H         1 UNK         0.0000 
    100 H100        4.1883    4.9536   -6.3138 H         1 UNK         0.0000 
    101 H101        1.2148    4.9110   -5.9581 H         1 UNK         0.0000 
    102 H102        0.2717    2.4398   -6.7727 H         1 UNK         0.0000 
    103 H103        0.3397    3.0100   -5.1681 H         1 UNK         0.0000 
    104 H104        2.0391    0.6190   -5.2673 H         1 UNK         0.0000 
    105 H105        0.6151    0.2059   -6.0813 H         1 UNK         0.0000 
    106 H106       -2.6310   -0.3065   -4.4090 H         1 UNK         0.0000 
    107 H107       -1.3278   -0.5639   -5.5060 H         1 UNK         0.0000 
    108 H108       -0.3811   -2.3340   -3.9958 H         1 UNK         0.0000 
    109 H109       -1.6792   -2.0864   -2.8536 H         1 UNK         0.0000 
    110 H110       -2.1799   -2.8802   -5.7491 H         1 UNK         0.0000 
    111 H111       -3.3616   -2.8174   -4.4916 H         1 UNK         0.0000 
    112 H112       -2.7760   -4.9688   -3.8968 H         1 UNK         0.0000 
@<TRIPOS>BOND
     1    1   21 nc   
     2    1   23 nc   
     3    1   35 nc   
     4    1   37 nc   
     5    1   49 nc   
     6    1   51 nc   
     7    2    3 2    
     8    3    4 1    
     9    3   55 am   BACKBONE|DICT|INTERRES
    10    4   56 1    
    11    4    5 1    
    12    4   57 1    
    13    5    6 1    
    14    5   58 1    
    15    5   59 1    
    16    6    7 2    
    17    6    8 am   BACKBONE|DICT|INTERRES
    18    8   10 1    
    19    8    9 1    
    20    9   60 1    
    21   10   62 1    
    22   10   61 1    
    23   10   11 1    
    24   11   12 1    
    25   11   64 1    
    26   11   63 1    
    27   12   65 1    
    28   12   13 1    
    29   12   66 1    
    30   13   68 1    
    31   13   14 1    
    32   13   67 1    
    33   14   70 1    
    34   14   69 1    
    35   14   15 1    
    36   15   16 am   BACKBONE|DICT|INTERRES
    37   15   71 1    
    38   16   17 2    
    39   16   18 1    
    40   18   72 1    
    41   18   19 1    
    42   18   73 1    
    43   19   75 1    
    44   19   20 1    
    45   19   74 1    
    46   20   21 2    
    47   20   22 am   BACKBONE|DICT|INTERRES
    48   22   24 1    
    49   22   23 1    
    50   24   76 1    
    51   24   77 1    
    52   24   25 1    
    53   25   26 1    
    54   25   78 1    
    55   25   79 1    
    56   26   27 1    
    57   26   81 1    
    58   26   80 1    
    59   27   82 1    
    60   27   28 1    
    61   27   83 1    
    62   28   84 1    
    63   28   29 1    
    64   28   85 1    
    65   29   30 am   BACKBONE|DICT|INTERRES
    66   29   86 1    
    67   30   31 2    
    68   30   32 1    
    69   32   88 1    
    70   32   33 1    
    71   32   87 1    
    72   33   34 1    
    73   33   89 1    
    74   33   90 1    
    75   34   35 2    
    76   34   36 am   BACKBONE|DICT|INTERRES
    77   36   37 1    
    78   36   38 1    
    79   38   92 1    
    80   38   39 1    
    81   38   91 1    
    82   39   93 1    
    83   39   40 1    
    84   39   94 1    
    85   40   96 1    
    86   40   41 1    
    87   40   95 1    
    88   41   98 1    
    89   41   42 1    
    90   41   97 1    
    91   42   43 1    
    92   42   99 1    
    93   42  100 1    
    94   43   44 am   BACKBONE|DICT|INTERRES
    95   43  101 1    
    96   44   46 1    
    97   44   45 2    
    98   46   47 1    
    99   46  103 1    
   100   46  102 1    
   101   47  104 1    
   102   47   48 1    
   103   47  105 1    
   104   48   50 am   BACKBONE|DICT|INTERRES
   105   48   49 2    
   106   50   51 1    
   107   50   52 1    
   108   52  106 1    
   109   52   53 1    
   110   52  107 1    
   111   53  109 1    
   112   53   54 1    
   113   53  108 1    
   114   54  111 1    
   115   54   55 1    
   116   54  110 1    
   117   55  112 1    
@<TRIPOS>SUBSTRUCTURE
     1 UNK         1 GROUP             0       ****    0 ROOT    
@<TRIPOS>MOLECULE
106_c1
112   117    1
SMALL
USER_CHARGES


@<TRIPOS>ATOM
      1 Fe1         0.0183    1.8304   -1.4444 Fe        1 UNK         0.0000 
      2 O2          4.6278   -2.1143    2.2164 O.2       1 UNK         0.0000 
      3 C3          3.5050   -2.5165    1.9254 C.2       1 UNK         0.0000 
      4 C4          2.5263   -1.6390    1.1525 C.3       1 UNK         0.0000 
      5 C5          2.2303   -0.2746    1.8105 C.3       1 UNK         0.0000 
      6 C6          1.2188    0.4553    0.9180 C.2       1 UNK         0.0000 
      7 O7          1.4225    0.5901   -0.2917 O.co2     1 UNK         0.0000 
      8 N8          0.0369    0.9685    1.3295 N.am      1 UNK         0.0000 
      9 O9         -0.7770    1.4229    0.3869 O.co2     1 UNK         0.0000 
     10 C10        -0.3430    1.3473    2.7045 C.3       1 UNK         0.0000 
     11 C11        -0.4489    2.8860    2.8768 C.3       1 UNK         0.0000 
     12 C12        -1.0017    3.3423    4.2385 C.3       1 UNK         0.0000 
     13 C13        -0.8616    4.8612    4.4837 C.3       1 UNK         0.0000 
     14 C14        -1.7336    5.7687    3.5889 C.3       1 UNK         0.0000 
     15 N15        -1.1836    6.0635    2.2571 N.am      1 UNK         0.0000 
     16 C16        -1.9189    6.1589    1.1347 C.2       1 UNK         0.0000 
     17 O17        -3.1111    5.8730    1.0962 O.2       1 UNK         0.0000 
     18 C18        -1.2342    6.7396   -0.1172 C.3       1 UNK         0.0000 
     19 C19        -1.5004    5.9999   -1.4575 C.3       1 UNK         0.0000 
     20 C20        -0.7289    4.6817   -1.5613 C.2       1 UNK         0.0000 
     21 O21        -1.2754    3.5749   -1.5078 O.co2     1 UNK         0.0000 
     22 N22         0.6198    4.6312   -1.6382 N.am      1 UNK         0.0000 
     23 O23         1.2036    3.4488   -1.5669 O.co2     1 UNK         0.0000 
     24 C24         1.5191    5.7384   -2.0203 C.3       1 UNK         0.0000 
     25 C25         2.2799    5.4092   -3.3263 C.3       1 UNK         0.0000 
     26 C26         3.0542    6.5498   -4.0099 C.3       1 UNK         0.0000 
     27 C27         3.9343    6.0851   -5.2013 C.3       1 UNK         0.0000 
     28 C28         3.2768    5.1309   -6.2257 C.3       1 UNK         0.0000 
     29 N29         3.3092    3.7163   -5.8229 N.am      1 UNK         0.0000 
     30 C30         2.2474    2.8960   -5.7550 C.2       1 UNK         0.0000 
     31 O31         1.1012    3.2570   -6.0018 O.2       1 UNK         0.0000 
     32 C32         2.5242    1.4346   -5.3647 C.3       1 UNK         0.0000 
     33 C33         1.2719    0.5161   -5.2315 C.3       1 UNK         0.0000 
     34 C34         0.4910    0.7229   -3.9314 C.2       1 UNK         0.0000 
     35 O35         0.9072    1.3572   -2.9524 O.co2     1 UNK         0.0000 
     36 N36        -0.7814    0.3275   -3.6722 N.am      1 UNK         0.0000 
     37 O37        -1.2629    0.7369   -2.4872 O.co2     1 UNK         0.0000 
     38 C38        -1.6883   -0.3939   -4.5644 C.3       1 UNK         0.0000 
     39 C39        -2.1707   -1.7535   -4.0136 C.3       1 UNK         0.0000 
     40 C40        -1.0880   -2.8574   -3.9772 C.3       1 UNK         0.0000 
     41 C41        -1.7061   -4.2376   -3.6928 C.3       1 UNK         0.0000 
     42 N42        -0.7523   -5.3521   -3.6999 N.am      1 UNK         0.0000 
     43 C43        -0.7267   -6.3208   -2.7677 C.2       1 UNK         0.0000 
     44 O44        -1.4417   -6.2915   -1.7716 O.2       1 UNK         0.0000 
     45 C45         0.2378   -7.4939   -3.0043 C.3       1 UNK         0.0000 
     46 C46         0.0387   -8.7609   -2.1175 C.3       1 UNK         0.0000 
     47 C47         0.3767   -8.6225   -0.6148 C.2       1 UNK         0.0000 
     48 O48        -0.5232   -8.8244    0.2034 O.2       1 UNK         0.0000 
     49 N49         1.6502   -8.3508   -0.2169 N.am      1 UNK         0.0000 
     50 O50         2.6747   -8.4366   -1.1838 O.3       1 UNK         0.0000 
     51 C51         2.0920   -7.9854    1.1377 C.3       1 UNK         0.0000 
     52 C52         2.7363   -6.5818    1.2109 C.3       1 UNK         0.0000 
     53 C53         3.0877   -6.1568    2.6583 C.3       1 UNK         0.0000 
     54 C54         3.8328   -4.8190    2.7910 C.3       1 UNK         0.0000 
     55 N55         3.0576   -3.7442    2.1971 N.am      1 UNK         0.0000 
     56 H56         1.5880   -2.1871    1.0386 H         1 UNK         0.0000 
     57 H57         2.9844   -1.5061    0.1719 H         1 UNK         0.0000 
     58 H58         1.8447   -0.4105    2.8162 H         1 UNK         0.0000 
     59 H59         3.1182    0.3541    1.8361 H         1 UNK         0.0000 
     60 H60        -1.3015    0.8777    2.9459 H         1 UNK         0.0000 
     61 H61         0.3342    0.9642    3.4681 H         1 UNK         0.0000 
     62 H62        -1.1013    3.2864    2.0995 H         1 UNK         0.0000 
     63 H63         0.5406    3.3177    2.7219 H         1 UNK         0.0000 
     64 H64        -0.4921    2.8030    5.0395 H         1 UNK         0.0000 
     65 H65        -2.0567    3.0618    4.3007 H         1 UNK         0.0000 
     66 H66         0.1841    5.1645    4.4412 H         1 UNK         0.0000 
     67 H67        -1.1558    5.0389    5.5177 H         1 UNK         0.0000 
     68 H68        -1.9049    6.7163    4.0987 H         1 UNK         0.0000 
     69 H69        -2.7248    5.3155    3.5094 H         1 UNK         0.0000 
     70 H70        -0.2057    6.2923    2.2016 H         1 UNK         0.0000 
     71 H71        -0.1751    6.9398    0.0249 H         1 UNK         0.0000 
     72 H72        -1.6830    7.7278   -0.2169 H         1 UNK         0.0000 
     73 H73        -2.5630    5.8691   -1.6504 H         1 UNK         0.0000 
     74 H74        -1.1722    6.6266   -2.2892 H         1 UNK         0.0000 
     75 H75         2.2189    5.9265   -1.2046 H         1 UNK         0.0000 
     76 H76         0.9967    6.6867   -2.1330 H         1 UNK         0.0000 
     77 H77         2.9706    4.5899   -3.1184 H         1 UNK         0.0000 
     78 H78         1.5405    5.0307   -4.0316 H         1 UNK         0.0000 
     79 H79         2.3349    7.2949   -4.3626 H         1 UNK         0.0000 
     80 H80         3.6914    7.0531   -3.2748 H         1 UNK         0.0000 
     81 H81         4.8597    5.6418   -4.8308 H         1 UNK         0.0000 
     82 H82         4.2505    6.9824   -5.7313 H         1 UNK         0.0000 
     83 H83         3.7799    5.2265   -7.1861 H         1 UNK         0.0000 
     84 H84         2.2575    5.4714   -6.4160 H         1 UNK         0.0000 
     85 H85         4.2172    3.3231   -5.6363 H         1 UNK         0.0000 
     86 H86         3.1667    1.3705   -4.4873 H         1 UNK         0.0000 
     87 H87         3.1236    1.0418   -6.1808 H         1 UNK         0.0000 
     88 H88         0.6396    0.5883   -6.1173 H         1 UNK         0.0000 
     89 H89         1.6121   -0.5151   -5.1796 H         1 UNK         0.0000 
     90 H90        -1.2509   -0.5585   -5.5533 H         1 UNK         0.0000 
     91 H91        -2.5504    0.2510   -4.7438 H         1 UNK         0.0000 
     92 H92        -2.5970   -1.6135   -3.0164 H         1 UNK         0.0000 
     93 H93        -2.9980   -2.0815   -4.6470 H         1 UNK         0.0000 
     94 H94        -0.5554   -2.8684   -4.9290 H         1 UNK         0.0000 
     95 H95        -0.3586   -2.6181   -3.2001 H         1 UNK         0.0000 
     96 H96        -2.4809   -4.4495   -4.4324 H         1 UNK         0.0000 
     97 H97        -2.2551   -4.1757   -2.7484 H         1 UNK         0.0000 
     98 H98        -0.1482   -5.4411   -4.5001 H         1 UNK         0.0000 
     99 H99         0.0429   -7.8187   -4.0260 H         1 UNK         0.0000 
    100 H100        1.2777   -7.1754   -3.0203 H         1 UNK         0.0000 
    101 H101        0.6869   -9.5495   -2.5008 H         1 UNK         0.0000 
    102 H102       -0.9575   -9.1785   -2.2665 H         1 UNK         0.0000 
    103 H103        3.1367   -9.2476   -0.9481 H         1 UNK         0.0000 
    104 H104        2.7968   -8.7333    1.5110 H         1 UNK         0.0000 
    105 H105        1.2490   -8.0271    1.8355 H         1 UNK         0.0000 
    106 H106        3.6453   -6.5804    0.6049 H         1 UNK         0.0000 
    107 H107        2.0505   -5.8600    0.7582 H         1 UNK         0.0000 
    108 H108        2.1731   -6.1082    3.2503 H         1 UNK         0.0000 
    109 H109        3.7009   -6.9275    3.1230 H         1 UNK         0.0000 
    110 H110        4.7836   -4.8759    2.2565 H         1 UNK         0.0000 
    111 H111        4.0613   -4.5900    3.8332 H         1 UNK         0.0000 
    112 H112        2.1003   -3.9489    1.9630 H         1 UNK         0.0000 
@<TRIPOS>BOND
     1    1    7 nc   
     2    1    9 nc   
     3    1   21 nc   
     4    1   23 nc   
     5    1   35 nc   
     6    1   37 nc   
     7    2    3 2    
     8    3   55 am   BACKBONE|DICT|INTERRES
     9    3    4 1    
    10    4    5 1    
    11    4   56 1    
    12    4   57 1    
    13    5   58 1    
    14    5    6 1    
    15    5   59 1    
    16    6    7 2    
    17    6    8 am   BACKBONE|DICT|INTERRES
    18    8   10 1    
    19    8    9 1    
    20   10   11 1    
    21   10   60 1    
    22   10   61 1    
    23   11   12 1    
    24   11   62 1    
    25   11   63 1    
    26   12   65 1    
    27   12   13 1    
    28   12   64 1    
    29   13   66 1    
    30   13   67 1    
    31   13   14 1    
    32   14   68 1    
    33   14   15 1    
    34   14   69 1    
    35   15   16 am   BACKBONE|DICT|INTERRES
    36   15   70 1    
    37   16   17 2    
    38   16   18 1    
    39   18   71 1    
    40   18   19 1    
    41   18   72 1    
    42   19   20 1    
    43   19   73 1    
    44   19   74 1    
    45   20   21 2    
    46   20   22 am   BACKBONE|DICT|INTERRES
    47   22   23 1    
    48   22   24 1    
    49   24   75 1    
    50   24   25 1    
    51   24   76 1    
    52   25   77 1    
    53   25   26 1    
    54   25   78 1    
    55   26   80 1    
    56   26   27 1    
    57   26   79 1    
    58   27   81 1    
    59   27   28 1    
    60   27   82 1    
    61   28   29 1    
    62   28   83 1    
    63   28   84 1    
    64   29   30 am   BACKBONE|DICT|INTERRES
    65   29   85 1    
    66   30   32 1    
    67   30   31 2    
    68   32   33 1    
    69   32   86 1    
    70   32   87 1    
    71   33   34 1    
    72   33   88 1    
    73   33   89 1    
    74   34   36 am   BACKBONE|DICT|INTERRES
    75   34   35 2    
    76   36   37 1    
    77   36   38 1    
    78   38   39 1    
    79   38   90 1    
    80   38   91 1    
    81   39   40 1    
    82   39   92 1    
    83   39   93 1    
    84   40   41 1    
    85   40   95 1    
    86   40   94 1    
    87   41   97 1    
    88   41   42 1    
    89   41   96 1    
    90   42   43 am   BACKBONE|DICT|INTERRES
    91   42   98 1    
    92   43   44 2    
    93   43   45 1    
    94   45  100 1    
    95   45   46 1    
    96   45   99 1    
    97   46   47 1    
    98   46  101 1    
    99   46  102 1    
   100   47   49 am   BACKBONE|DICT|INTERRES
   101   47   48 2    
   102   49   51 1    
   103   49   50 1    
   104   50  103 1    
   105   51   52 1    
   106   51  104 1    
   107   51  105 1    
   108   52   53 1    
   109   52  106 1    
   110   52  107 1    
   111   53   54 1    
   112   53  109 1    
   113   53  108 1    
   114   54  111 1    
   115   54   55 1    
   116   54  110 1    
   117   55  112 1    
@<TRIPOS>SUBSTRUCTURE
     1 UNK         1 GROUP             0       ****    0 ROOT    
@<TRIPOS>MOLECULE
106_c2
112   117    1
SMALL
USER_CHARGES


@<TRIPOS>ATOM
      1 Fe1        -0.1058   -3.7741    0.0612 Fe        1 UNK         0.0000 
      2 O2         -2.2295   -5.9171   -4.6379 O.2       1 UNK         0.0000 
      3 C3         -1.1596   -5.3892   -4.9274 C.2       1 UNK         0.0000 
      4 C4         -1.0751   -3.8747   -5.1380 C.3       1 UNK         0.0000 
      5 C5         -1.6704   -2.9921   -3.9955 C.3       1 UNK         0.0000 
      6 C6         -0.8551   -2.9128   -2.6923 C.2       1 UNK         0.0000 
      7 O7         -1.2279   -3.4091   -1.6268 O.co2     1 UNK         0.0000 
      8 N8          0.3794   -2.3560   -2.5994 N.am      1 UNK         0.0000 
      9 O9          1.0123   -2.4963   -1.4304 O.co2     1 UNK         0.0000 
     10 C10         1.1332   -1.7032   -3.6887 C.3       1 UNK         0.0000 
     11 C11         1.7939   -0.3283   -3.3943 C.3       1 UNK         0.0000 
     12 C12         0.9333    0.9237   -3.7029 C.3       1 UNK         0.0000 
     13 C13         1.7681    2.2274   -3.6008 C.3       1 UNK         0.0000 
     14 C14         1.2872    3.3961   -4.4841 C.3       1 UNK         0.0000 
     15 N15         0.2403    4.2365   -3.8949 N.am      1 UNK         0.0000 
     16 C16         0.3117    5.5775   -3.8235 C.2       1 UNK         0.0000 
     17 O17         1.3120    6.2108   -4.1517 O.2       1 UNK         0.0000 
     18 C18        -0.9385    6.3449   -3.3814 C.3       1 UNK         0.0000 
     19 C19        -0.6998    7.4066   -2.2719 C.3       1 UNK         0.0000 
     20 C20        -0.6016    6.8533   -0.8350 C.2       1 UNK         0.0000 
     21 O21        -0.9121    5.6763   -0.6282 O.2       1 UNK         0.0000 
     22 N22        -0.2118    7.6760    0.1807 N.am      1 UNK         0.0000 
     23 O23         0.2131    8.9799   -0.1435 O.3       1 UNK         0.0000 
     24 C24         0.0658    7.2515    1.5564 C.3       1 UNK         0.0000 
     25 C25         1.2676    6.2902    1.6757 C.3       1 UNK         0.0000 
     26 C26         1.2768    5.5064    3.0024 C.3       1 UNK         0.0000 
     27 C27         2.0734    4.1963    2.8773 C.3       1 UNK         0.0000 
     28 C28         1.9255    3.2431    4.0770 C.3       1 UNK         0.0000 
     29 N29         2.1112    1.8697    3.6315 N.am      1 UNK         0.0000 
     30 C30         1.6770    0.7726    4.2585 C.2       1 UNK         0.0000 
     31 O31         1.2452    0.7778    5.4093 O.2       1 UNK         0.0000 
     32 C32         1.6990   -0.4966    3.4058 C.3       1 UNK         0.0000 
     33 C33         0.7388   -1.6341    3.8645 C.3       1 UNK         0.0000 
     34 C34         0.1047   -2.4348    2.7240 C.2       1 UNK         0.0000 
     35 O35         0.4735   -2.3547    1.5518 O.co2     1 UNK         0.0000 
     36 N36        -0.8634   -3.3482    2.9177 N.am      1 UNK         0.0000 
     37 O37        -1.3713   -3.9474    1.8521 O.co2     1 UNK         0.0000 
     38 C38        -1.2088   -3.9195    4.2305 C.3       1 UNK         0.0000 
     39 C39        -0.3374   -5.1366    4.6467 C.3       1 UNK         0.0000 
     40 C40        -0.7344   -6.4891    4.0138 C.3       1 UNK         0.0000 
     41 C41         0.2442   -7.6369    4.3531 C.3       1 UNK         0.0000 
     42 N42         1.3867   -7.6833    3.4389 N.am      1 UNK         0.0000 
     43 C43         1.3952   -8.3898    2.3004 C.2       1 UNK         0.0000 
     44 O44         0.4934   -9.1579    1.9798 O.2       1 UNK         0.0000 
     45 C45         2.5995   -8.1916    1.3686 C.3       1 UNK         0.0000 
     46 C46         2.8380   -6.7599    0.7903 C.3       1 UNK         0.0000 
     47 C47         1.6257   -5.8914    0.3946 C.2       1 UNK         0.0000 
     48 O48         1.6169   -4.6528    0.4834 O.co2     1 UNK         0.0000 
     49 N49         0.4492   -6.3202   -0.1199 N.am      1 UNK         0.0000 
     50 O50        -0.4632   -5.3781   -0.2918 O.co2     1 UNK         0.0000 
     51 C51         0.2601   -7.5123   -0.9536 C.3       1 UNK         0.0000 
     52 C52         0.6535   -7.2023   -2.4121 C.3       1 UNK         0.0000 
     53 C53        -0.1120   -8.0214   -3.4662 C.3       1 UNK         0.0000 
     54 C54         0.1411   -7.5328   -4.9115 C.3       1 UNK         0.0000 
     55 N55        -0.0241   -6.0827   -5.0978 N.am      1 UNK         0.0000 
     56 H56        -1.7078   -3.7241   -6.0086 H         1 UNK         0.0000 
     57 H57        -0.0933   -3.5394   -5.4812 H         1 UNK         0.0000 
     58 H58        -1.7595   -1.9653   -4.3535 H         1 UNK         0.0000 
     59 H59        -2.7060   -3.2649   -3.8040 H         1 UNK         0.0000 
     60 H60         1.9240   -2.3953   -3.9823 H         1 UNK         0.0000 
     61 H61         0.5380   -1.5932   -4.5897 H         1 UNK         0.0000 
     62 H62         2.1701   -0.2811   -2.3722 H         1 UNK         0.0000 
     63 H63         2.6766   -0.2669   -4.0336 H         1 UNK         0.0000 
     64 H64         0.5283    0.8407   -4.7155 H         1 UNK         0.0000 
     65 H65         0.0684    0.9684   -3.0366 H         1 UNK         0.0000 
     66 H66         2.7912    2.0127   -3.9210 H         1 UNK         0.0000 
     67 H67         1.8640    2.5391   -2.5592 H         1 UNK         0.0000 
     68 H68         0.9183    3.0114   -5.4349 H         1 UNK         0.0000 
     69 H69         2.1641    3.9767   -4.7799 H         1 UNK         0.0000 
     70 H70        -0.5879    3.7884   -3.5405 H         1 UNK         0.0000 
     71 H71        -1.8076    5.7205   -3.1764 H         1 UNK         0.0000 
     72 H72        -1.2283    6.8905   -4.2800 H         1 UNK         0.0000 
     73 H73         0.1179    8.0790   -2.5384 H         1 UNK         0.0000 
     74 H74        -1.5845    8.0416   -2.2426 H         1 UNK         0.0000 
     75 H75        -0.4771    9.5494    0.2133 H         1 UNK         0.0000 
     76 H76         0.2024    8.1069    2.2215 H         1 UNK         0.0000 
     77 H77        -0.8370    6.7569    1.9179 H         1 UNK         0.0000 
     78 H78         1.2244    5.5758    0.8516 H         1 UNK         0.0000 
     79 H79         2.2077    6.8281    1.5408 H         1 UNK         0.0000 
     80 H80         1.6563    6.1301    3.8141 H         1 UNK         0.0000 
     81 H81         0.2479    5.2545    3.2706 H         1 UNK         0.0000 
     82 H82         3.1286    4.4093    2.7007 H         1 UNK         0.0000 
     83 H83         1.7252    3.6820    1.9774 H         1 UNK         0.0000 
     84 H84         2.5985    3.5044    4.8955 H         1 UNK         0.0000 
     85 H85         0.9120    3.3258    4.4773 H         1 UNK         0.0000 
     86 H86         2.5212    1.7452    2.7193 H         1 UNK         0.0000 
     87 H87         1.4588   -0.1941    2.3829 H         1 UNK         0.0000 
     88 H88         2.7215   -0.8711    3.3579 H         1 UNK         0.0000 
     89 H89         1.2799   -2.3304    4.5026 H         1 UNK         0.0000 
     90 H90        -0.0675   -1.2382    4.4797 H         1 UNK         0.0000 
     91 H91        -2.2606   -4.2127    4.2314 H         1 UNK         0.0000 
     92 H92        -1.1425   -3.1710    5.0199 H         1 UNK         0.0000 
     93 H93        -0.4287   -5.2556    5.7294 H         1 UNK         0.0000 
     94 H94         0.7197   -4.9375    4.4619 H         1 UNK         0.0000 
     95 H95        -0.8383   -6.3897    2.9296 H         1 UNK         0.0000 
     96 H96        -1.7301   -6.7647    4.3652 H         1 UNK         0.0000 
     97 H97        -0.2971   -8.5865    4.3672 H         1 UNK         0.0000 
     98 H98         0.6209   -7.5287    5.3711 H         1 UNK         0.0000 
     99 H99         2.2097   -7.1579    3.6806 H         1 UNK         0.0000 
    100 H100        3.4995   -8.5494    1.8639 H         1 UNK         0.0000 
    101 H101        2.5111   -8.9011    0.5494 H         1 UNK         0.0000 
    102 H102        3.5526   -6.8000   -0.0318 H         1 UNK         0.0000 
    103 H103        3.3861   -6.1976    1.5479 H         1 UNK         0.0000 
    104 H104        0.7792   -8.3987   -0.6096 H         1 UNK         0.0000 
    105 H105       -0.7994   -7.7839   -0.8915 H         1 UNK         0.0000 
    106 H106        0.4763   -6.1434   -2.6060 H         1 UNK         0.0000 
    107 H107        1.7282   -7.3347   -2.5436 H         1 UNK         0.0000 
    108 H108       -1.1830   -7.9651   -3.2669 H         1 UNK         0.0000 
    109 H109        0.1485   -9.0767   -3.3782 H         1 UNK         0.0000 
    110 H110       -0.4886   -8.0705   -5.6228 H         1 UNK         0.0000 
    111 H111        1.1785   -7.7531   -5.1760 H         1 UNK         0.0000 
    112 H112        0.8062   -5.5499   -5.3034 H         1 UNK         0.0000 
@<TRIPOS>BOND
     1    1    7 nc   
     2    1    9 nc   
     3    1   35 nc   
     4    1   37 nc   
     5    1   48 nc   
     6    1   50 nc   
     7    2    3 2    
     8    3    4 1    
     9    3   55 am   BACKBONE|DICT|INTERRES
    10    4    5 1    
    11    4   56 1    
    12    4   57 1    
    13    5   59 1    
    14    5    6 1    
    15    5   58 1    
    16    6    7 2    
    17    6    8 am   BACKBONE|DICT|INTERRES
    18    8    9 1    
    19    8   10 1    
    20   10   11 1    
    21   10   60 1    
    22   10   61 1    
    23   11   62 1    
    24   11   12 1    
    25   11   63 1    
    26   12   13 1    
    27   12   65 1    
    28   12   64 1    
    29   13   67 1    
    30   13   14 1    
    31   13   66 1    
    32   14   15 1    
    33   14   68 1    
    34   14   69 1    
    35   15   16 am   BACKBONE|DICT|INTERRES
    36   15   70 1    
    37   16   18 1    
    38   16   17 2    
    39   18   71 1    
    40   18   19 1    
    41   18   72 1    
    42   19   74 1    
    43   19   20 1    
    44   19   73 1    
    45   20   21 2    
    46   20   22 am   BACKBONE|DICT|INTERRES
    47   22   24 1    
    48   22   23 1    
    49   23   75 1    
    50   24   25 1    
    51   24   77 1    
    52   24   76 1    
    53   25   26 1    
    54   25   78 1    
    55   25   79 1    
    56   26   81 1    
    57   26   80 1    
    58   26   27 1    
    59   27   28 1    
    60   27   82 1    
    61   27   83 1    
    62   28   85 1    
    63   28   84 1    
    64   28   29 1    
    65   29   30 am   BACKBONE|DICT|INTERRES
    66   29   86 1    
    67   30   31 2    
    68   30   32 1    
    69   32   33 1    
    70   32   87 1    
    71   32   88 1    
    72   33   90 1    
    73   33   89 1    
    74   33   34 1    
    75   34   35 2    
    76   34   36 am   BACKBONE|DICT|INTERRES
    77   36   38 1    
    78   36   37 1    
    79   38   39 1    
    80   38   92 1    
    81   38   91 1    
    82   39   93 1    
    83   39   40 1    
    84   39   94 1    
    85   40   41 1    
    86   40   96 1    
    87   40   95 1    
    88   41   98 1    
    89   41   42 1    
    90   41   97 1    
    91   42   99 1    
    92   42   43 am   BACKBONE|DICT|INTERRES
    93   43   44 2    
    94   43   45 1    
    95   45  100 1    
    96   45   46 1    
    97   45  101 1    
    98   46  103 1    
    99   46   47 1    
   100   46  102 1    
   101   47   48 2    
   102   47   49 am   BACKBONE|DICT|INTERRES
   103   49   50 1    
   104   49   51 1    
   105   51  105 1    
   106   51  104 1    
   107   51   52 1    
   108   52   53 1    
   109   52  106 1    
   110   52  107 1    
   111   53  108 1    
   112   53  109 1    
   113   53   54 1    
   114   54   55 1    
   115   54  110 1    
   116   54  111 1    
   117   55  112 1    
@<TRIPOS>SUBSTRUCTURE
     1 UNK         1 GROUP             0       ****    0 ROOT    
@<TRIPOS>MOLECULE
106_c4
112   117    1
SMALL
USER_CHARGES


@<TRIPOS>ATOM
      1 Fe1         0.6498    2.1563   -2.1342 Fe        1 UNK         0.0000 
      2 O2         -0.0673   -6.1678   -5.3829 O.2       1 UNK         0.0000 
      3 C3          1.0968   -6.0660   -5.0074 C.2       1 UNK         0.0000 
      4 C4          1.8555   -7.2865   -4.4724 C.3       1 UNK         0.0000 
      5 C5          1.0217   -8.2554   -3.5797 C.3       1 UNK         0.0000 
      6 C6          1.3317   -8.2268   -2.0645 C.2       1 UNK         0.0000 
      7 O7          2.5012   -8.0541   -1.7147 O.2       1 UNK         0.0000 
      8 N8          0.3646   -8.5357   -1.1554 N.am      1 UNK         0.0000 
      9 O9         -0.9707   -8.6308   -1.6011 O.3       1 UNK         0.0000 
     10 C10         0.5942   -8.9860    0.2248 C.3       1 UNK         0.0000 
     11 C11        -0.2226   -8.2644    1.3176 C.3       1 UNK         0.0000 
     12 C12         0.2700   -6.8469    1.6684 C.3       1 UNK         0.0000 
     13 C13        -0.4529   -5.6999    0.9370 C.3       1 UNK         0.0000 
     14 C14         0.0851   -4.3348    1.4046 C.3       1 UNK         0.0000 
     15 N15        -0.8065   -3.2069    1.1314 N.am      1 UNK         0.0000 
     16 C16        -0.6387   -2.0048    1.7017 C.2       1 UNK         0.0000 
     17 O17         0.2835   -1.7672    2.4809 O.2       1 UNK         0.0000 
     18 C18        -1.6690   -0.9187    1.3797 C.3       1 UNK         0.0000 
     19 C19        -1.1461    0.5315    1.5732 C.3       1 UNK         0.0000 
     20 C20        -0.1858    0.9469    0.4472 C.2       1 UNK         0.0000 
     21 O21        -0.5954    0.8257   -0.7151 O.co2     1 UNK         0.0000 
     22 N22         1.0542    1.4822    0.6583 N.am      1 UNK         0.0000 
     23 O23         1.9251    1.7810   -0.3150 O.co2     1 UNK         0.0000 
     24 C24         1.5156    1.9600    1.9708 C.3       1 UNK         0.0000 
     25 C25         1.1937    3.4584    2.1554 C.3       1 UNK         0.0000 
     26 C26         1.8006    4.0579    3.4306 C.3       1 UNK         0.0000 
     27 C27         1.2737    5.4694    3.7630 C.3       1 UNK         0.0000 
     28 C28         1.7358    6.5981    2.8156 C.3       1 UNK         0.0000 
     29 N29         0.9395    6.7322    1.5887 N.am      1 UNK         0.0000 
     30 C30         1.4421    7.0026    0.3747 C.2       1 UNK         0.0000 
     31 O31         2.6464    7.0415    0.1462 O.2       1 UNK         0.0000 
     32 C32         0.4410    7.3442   -0.7375 C.3       1 UNK         0.0000 
     33 C33         0.6757    6.6242   -2.0869 C.3       1 UNK         0.0000 
     34 C34         0.2953    5.1351   -2.0380 C.2       1 UNK         0.0000 
     35 O35         1.1719    4.3210   -1.7309 O.co2     1 UNK         0.0000 
     36 N36        -0.9594    4.6826   -2.3372 N.am      1 UNK         0.0000 
     37 O37        -1.2945    3.3849   -2.3474 O.co2     1 UNK         0.0000 
     38 C38        -2.0909    5.5568   -2.7237 C.3       1 UNK         0.0000 
     39 C39        -2.5044    5.3977   -4.2048 C.3       1 UNK         0.0000 
     40 C40        -1.5036    6.0186   -5.2007 C.3       1 UNK         0.0000 
     41 C41        -1.6574    5.5130   -6.6560 C.3       1 UNK         0.0000 
     42 N42        -0.5601    4.6451   -7.0996 N.am      1 UNK         0.0000 
     43 C43        -0.3824    3.3728   -6.7222 C.2       1 UNK         0.0000 
     44 O44        -1.1598    2.7835   -5.9830 O.2       1 UNK         0.0000 
     45 C45         0.8663    2.6489   -7.2483 C.3       1 UNK         0.0000 
     46 C46         1.9944    2.3227   -6.2186 C.3       1 UNK         0.0000 
     47 C47         1.5758    1.9062   -4.7907 C.2       1 UNK         0.0000 
     48 O48         1.5386    2.7439   -3.8805 O.co2     1 UNK         0.0000 
     49 N49         1.2002    0.6443   -4.4705 N.am      1 UNK         0.0000 
     50 O50         0.8288    0.2942   -3.2392 O.co2     1 UNK         0.0000 
     51 C51         1.1964   -0.4910   -5.4081 C.3       1 UNK         0.0000 
     52 C52         2.2916   -1.5227   -5.0431 C.3       1 UNK         0.0000 
     53 C53         2.3853   -2.6819   -6.0446 C.3       1 UNK         0.0000 
     54 C54         1.2962   -3.7565   -5.8593 C.3       1 UNK         0.0000 
     55 N55         1.7900   -4.9266   -5.1321 N.am      1 UNK         0.0000 
     56 H56         2.7696   -6.9568   -3.9778 H         1 UNK         0.0000 
     57 H57         2.1697   -7.8290   -5.3649 H         1 UNK         0.0000 
     58 H58        -0.0442   -8.1259   -3.7625 H         1 UNK         0.0000 
     59 H59         1.2642   -9.2736   -3.8825 H         1 UNK         0.0000 
     60 H60        -1.1508   -9.5745   -1.6052 H         1 UNK         0.0000 
     61 H61         0.3826  -10.0550    0.2672 H         1 UNK         0.0000 
     62 H62         1.6535   -8.9021    0.4818 H         1 UNK         0.0000 
     63 H63        -0.1181   -8.8638    2.2241 H         1 UNK         0.0000 
     64 H64        -1.2903   -8.2737    1.0905 H         1 UNK         0.0000 
     65 H65         0.1239   -6.6979    2.7406 H         1 UNK         0.0000 
     66 H66         1.3488   -6.7767    1.5105 H         1 UNK         0.0000 
     67 H67        -1.5249   -5.7708    1.1300 H         1 UNK         0.0000 
     68 H68        -0.3236   -5.8006   -0.1425 H         1 UNK         0.0000 
     69 H69         1.0813   -4.1606    0.9893 H         1 UNK         0.0000 
     70 H70         0.2303   -4.3789    2.4885 H         1 UNK         0.0000 
     71 H71        -1.5585   -3.3454    0.4742 H         1 UNK         0.0000 
     72 H72        -2.4834   -1.0817    2.0798 H         1 UNK         0.0000 
     73 H73        -2.1271   -1.0443    0.4025 H         1 UNK         0.0000 
     74 H74        -0.8215    0.7044    2.5966 H         1 UNK         0.0000 
     75 H75        -1.9967    1.2064    1.4766 H         1 UNK         0.0000 
     76 H76         1.1409    1.3832    2.8160 H         1 UNK         0.0000 
     77 H77         2.5977    1.8109    2.0537 H         1 UNK         0.0000 
     78 H78         1.5591    4.0133    1.2924 H         1 UNK         0.0000 
     79 H79         0.1120    3.5839    2.1786 H         1 UNK         0.0000 
     80 H80         1.5825    3.3986    4.2724 H         1 UNK         0.0000 
     81 H81         2.8889    4.0809    3.3402 H         1 UNK         0.0000 
     82 H82         0.1847    5.4576    3.8374 H         1 UNK         0.0000 
     83 H83         1.6263    5.7162    4.7672 H         1 UNK         0.0000 
     84 H84         2.7974    6.4546    2.5915 H         1 UNK         0.0000 
     85 H85         1.6913    7.5498    3.3490 H         1 UNK         0.0000 
     86 H86        -0.0601    6.6697    1.6858 H         1 UNK         0.0000 
     87 H87        -0.5982    7.2872   -0.4229 H         1 UNK         0.0000 
     88 H88         0.6100    8.4051   -0.9143 H         1 UNK         0.0000 
     89 H89         1.7051    6.7577   -2.4270 H         1 UNK         0.0000 
     90 H90         0.1064    7.1167   -2.8741 H         1 UNK         0.0000 
     91 H91        -1.9303    6.6164   -2.5159 H         1 UNK         0.0000 
     92 H92        -2.9397    5.3071   -2.0850 H         1 UNK         0.0000 
     93 H93        -2.6546    4.3410   -4.4178 H         1 UNK         0.0000 
     94 H94        -3.4758    5.8692   -4.3523 H         1 UNK         0.0000 
     95 H95        -1.6193    7.1026   -5.1729 H         1 UNK         0.0000 
     96 H96        -0.4798    5.8336   -4.8686 H         1 UNK         0.0000 
     97 H97        -2.6317    5.0439   -6.8236 H         1 UNK         0.0000 
     98 H98        -1.6442    6.3798   -7.3214 H         1 UNK         0.0000 
     99 H99         0.1186    5.0509   -7.7204 H         1 UNK         0.0000 
    100 H100        0.5305    1.7164   -7.7018 H         1 UNK         0.0000 
    101 H101        1.3033    3.1916   -8.0888 H         1 UNK         0.0000 
    102 H102        2.6075    3.2192   -6.1176 H         1 UNK         0.0000 
    103 H103        2.7000    1.6016   -6.6326 H         1 UNK         0.0000 
    104 H104        1.3121   -0.1993   -6.4573 H         1 UNK         0.0000 
    105 H105        0.2077   -0.9634   -5.3765 H         1 UNK         0.0000 
    106 H106        3.2493   -1.0092   -4.9984 H         1 UNK         0.0000 
    107 H107        2.1209   -1.9209   -4.0427 H         1 UNK         0.0000 
    108 H108        3.3746   -3.1376   -5.9738 H         1 UNK         0.0000 
    109 H109        2.3329   -2.2741   -7.0542 H         1 UNK         0.0000 
    110 H110        0.9776   -4.0860   -6.8532 H         1 UNK         0.0000 
    111 H111        0.3911   -3.3531   -5.3949 H         1 UNK         0.0000 
    112 H112        2.6787   -4.8503   -4.6648 H         1 UNK         0.0000 
@<TRIPOS>BOND
     1    1   21 nc   
     2    1   23 nc   
     3    1   35 nc   
     4    1   37 nc   
     5    1   48 nc   
     6    1   50 nc   
     7    2    3 2    
     8    3    4 1    
     9    3   55 am   BACKBONE|DICT|INTERRES
    10    4   56 1    
    11    4    5 1    
    12    4   57 1    
    13    5    6 1    
    14    5   58 1    
    15    5   59 1    
    16    6    7 2    
    17    6    8 am   BACKBONE|DICT|INTERRES
    18    8   10 1    
    19    8    9 1    
    20    9   60 1    
    21   10   61 1    
    22   10   62 1    
    23   10   11 1    
    24   11   12 1    
    25   11   63 1    
    26   11   64 1    
    27   12   65 1    
    28   12   13 1    
    29   12   66 1    
    30   13   67 1    
    31   13   14 1    
    32   13   68 1    
    33   14   70 1    
    34   14   15 1    
    35   14   69 1    
    36   15   16 am   BACKBONE|DICT|INTERRES
    37   15   71 1    
    38   16   17 2    
    39   16   18 1    
    40   18   19 1    
    41   18   72 1    
    42   18   73 1    
    43   19   74 1    
    44   19   20 1    
    45   19   75 1    
    46   20   21 2    
    47   20   22 am   BACKBONE|DICT|INTERRES
    48   22   24 1    
    49   22   23 1    
    50   24   25 1    
    51   24   76 1    
    52   24   77 1    
    53   25   79 1    
    54   25   26 1    
    55   25   78 1    
    56   26   27 1    
    57   26   80 1    
    58   26   81 1    
    59   27   82 1    
    60   27   83 1    
    61   27   28 1    
    62   28   85 1    
    63   28   29 1    
    64   28   84 1    
    65   29   86 1    
    66   29   30 am   BACKBONE|DICT|INTERRES
    67   30   31 2    
    68   30   32 1    
    69   32   87 1    
    70   32   33 1    
    71   32   88 1    
    72   33   34 1    
    73   33   89 1    
    74   33   90 1    
    75   34   35 2    
    76   34   36 am   BACKBONE|DICT|INTERRES
    77   36   37 1    
    78   36   38 1    
    79   38   91 1    
    80   38   92 1    
    81   38   39 1    
    82   39   40 1    
    83   39   93 1    
    84   39   94 1    
    85   40   95 1    
    86   40   96 1    
    87   40   41 1    
    88   41   42 1    
    89   41   97 1    
    90   41   98 1    
    91   42   43 am   BACKBONE|DICT|INTERRES
    92   42   99 1    
    93   43   44 2    
    94   43   45 1    
    95   45   46 1    
    96   45  100 1    
    97   45  101 1    
    98   46  102 1    
    99   46   47 1    
   100   46  103 1    
   101   47   49 am   BACKBONE|DICT|INTERRES
   102   47   48 2    
   103   49   51 1    
   104   49   50 1    
   105   51  105 1    
   106   51   52 1    
   107   51  104 1    
   108   52  107 1    
   109   52   53 1    
   110   52  106 1    
   111   53  108 1    
   112   53   54 1    
   113   53  109 1    
   114   54  111 1    
   115   54   55 1    
   116   54  110 1    
   117   55  112 1    
@<TRIPOS>SUBSTRUCTURE
     1 UNK         1 GROUP             0       ****    0 ROOT    
@<TRIPOS>MOLECULE
107_c1
100   105    1
SMALL
USER_CHARGES


@<TRIPOS>ATOM
      1 Fe1         0.3721    1.5379   -1.0605 Fe        1 UNK         0.0000 
      2 O2         -2.6967   -1.9060    1.8414 O.2       1 UNK         0.0000 
      3 C3         -1.6222   -1.7420    2.4151 C.2       1 UNK         0.0000 
      4 C4         -1.3271   -0.4240    3.1516 C.3       1 UNK         0.0000 
      5 C5         -1.5935    0.8684    2.3388 C.3       1 UNK         0.0000 
      6 C6         -0.6669    0.9840    1.1006 C.2       1 UNK         0.0000 
      7 O7         -1.0909    0.4027    0.1214 O.co2     1 UNK         0.0000 
      8 N8          0.5409    1.6769    0.9130 N.2       1 UNK         0.0000 
      9 O9          1.7012    1.1187    0.4924 O.co2     1 UNK         0.0000 
     10 C10         0.9332    2.6650    2.0088 C.3       1 UNK         0.0000 
     11 C11         1.4471    4.0746    1.6206 C.3       1 UNK         0.0000 
     12 C12         1.6954    4.9849    2.8829 C.3       1 UNK         0.0000 
     13 C13         2.2846    6.3871    2.6143 C.3       1 UNK         0.0000 
     14 C14         1.4854    7.2574    1.6303 C.3       1 UNK         0.0000 
     15 N15         1.7534    6.8774    0.2445 N.am      1 UNK         0.0000 
     16 C16         0.9054    7.0232   -0.7802 C.2       1 UNK         0.0000 
     17 O17        -0.2014    7.5478   -0.6626 O.2       1 UNK         0.0000 
     18 C18         1.3957    6.5129   -2.1404 C.3       1 UNK         0.0000 
     19 C19         0.3245    5.7982   -2.9899 C.3       1 UNK         0.0000 
     20 C20        -0.1070    4.4010   -2.4563 C.2       1 UNK         0.0000 
     21 O21         0.4604    3.9101   -1.4596 O.co2     1 UNK         0.0000 
     22 N22        -1.0733    3.7006   -3.1358 N.am      1 UNK         0.0000 
     23 O23        -1.4289    2.4434   -2.8423 O.co2     1 UNK         0.0000 
     24 C24        -1.9585    4.3316   -4.1544 C.3       1 UNK         0.0000 
     25 C25        -1.4328    4.3641   -5.6081 C.3       1 UNK         0.0000 
     26 C26        -1.4114    3.0253   -6.3687 C.3       1 UNK         0.0000 
     27 N27        -0.3188    2.1131   -6.0338 N.am      1 UNK         0.0000 
     28 C28         0.9615    2.2763   -6.3860 C.2       1 UNK         0.0000 
     29 O29         1.3953    3.3017   -6.9070 O.2       1 UNK         0.0000 
     30 C30         1.8667    1.0547   -6.2451 C.3       1 UNK         0.0000 
     31 C31         2.6768    0.9079   -4.9313 C.3       1 UNK         0.0000 
     32 C32         1.8718    0.8064   -3.6268 C.2       1 UNK         0.0000 
     33 O33         1.9066    1.7721   -2.8301 O.co2     1 UNK         0.0000 
     34 N34         1.1507   -0.3150   -3.3426 N.am      1 UNK         0.0000 
     35 O35         0.4251   -0.4957   -2.2462 O.co2     1 UNK         0.0000 
     36 C36         1.2421   -1.5759   -4.0963 C.3       1 UNK         0.0000 
     37 C37         2.2778   -2.5210   -3.4589 C.3       1 UNK         0.0000 
     38 C38         2.3644   -3.8988   -4.1197 C.3       1 UNK         0.0000 
     39 N39         1.3269   -4.8263   -3.6618 N.am      1 UNK         0.0000 
     40 C40         1.5658   -5.9500   -2.9796 C.2       1 UNK         0.0000 
     41 O41         2.6935   -6.2828   -2.6105 O.2       1 UNK         0.0000 
     42 C42         0.3953   -6.9162   -2.7807 C.3       1 UNK         0.0000 
     43 C43         0.3730   -7.6661   -1.4221 C.3       1 UNK         0.0000 
     44 C44        -0.3989   -6.9700   -0.2819 C.2       1 UNK         0.0000 
     45 O45        -1.5510   -6.6057   -0.5112 O.2       1 UNK         0.0000 
     46 N46         0.1284   -6.9125    0.9730 N.am      1 UNK         0.0000 
     47 O47         1.5274   -7.0090    1.1058 O.3       1 UNK         0.0000 
     48 C48        -0.5962   -6.5545    2.2009 C.3       1 UNK         0.0000 
     49 C49        -0.3301   -5.1360    2.7480 C.3       1 UNK         0.0000 
     50 C50        -0.7355   -3.9897    1.8075 C.3       1 UNK         0.0000 
     51 N51        -0.6673   -2.6871    2.4773 N.am      1 UNK         0.0000 
     52 H52        -0.3376   -0.3813    3.6044 H         1 UNK         0.0000 
     53 H53        -2.0147   -0.4227    3.9932 H         1 UNK         0.0000 
     54 H54        -2.6418    0.9253    2.0358 H         1 UNK         0.0000 
     55 H55        -1.5309    1.7205    3.0077 H         1 UNK         0.0000 
     56 H56         0.0836    2.8916    2.6537 H         1 UNK         0.0000 
     57 H57         1.6548    2.2209    2.7110 H         1 UNK         0.0000 
     58 H58         2.3665    3.9981    1.0346 H         1 UNK         0.0000 
     59 H59         0.6838    4.5436    0.9971 H         1 UNK         0.0000 
     60 H60         0.7624    5.1221    3.4417 H         1 UNK         0.0000 
     61 H61         2.3744    4.4891    3.5872 H         1 UNK         0.0000 
     62 H62         2.3371    6.9142    3.5672 H         1 UNK         0.0000 
     63 H63         3.3207    6.2933    2.2865 H         1 UNK         0.0000 
     64 H64         1.7054    8.3154    1.7797 H         1 UNK         0.0000 
     65 H65         0.4217    7.1490    1.8572 H         1 UNK         0.0000 
     66 H66         2.5948    6.3479    0.0753 H         1 UNK         0.0000 
     67 H67         2.2995    5.9101   -2.0648 H         1 UNK         0.0000 
     68 H68         1.7303    7.4035   -2.6672 H         1 UNK         0.0000 
     69 H69        -0.4931    6.4843   -3.2186 H         1 UNK         0.0000 
     70 H70         0.7850    5.6024   -3.9578 H         1 UNK         0.0000 
     71 H71        -2.2438    5.3368   -3.8569 H         1 UNK         0.0000 
     72 H72        -2.9256    3.8113   -4.1632 H         1 UNK         0.0000 
     73 H73        -2.1058    5.0131   -6.1676 H         1 UNK         0.0000 
     74 H74        -0.4630    4.8472   -5.6720 H         1 UNK         0.0000 
     75 H75        -2.3390    2.4844   -6.1697 H         1 UNK         0.0000 
     76 H76        -1.4187    3.2036   -7.4470 H         1 UNK         0.0000 
     77 H77        -0.5400    1.4022   -5.3465 H         1 UNK         0.0000 
     78 H78         1.3287    0.1526   -6.5094 H         1 UNK         0.0000 
     79 H79         2.5901    1.1262   -7.0545 H         1 UNK         0.0000 
     80 H80         3.4218    1.6950   -4.8702 H         1 UNK         0.0000 
     81 H81         3.3077    0.0208   -4.9900 H         1 UNK         0.0000 
     82 H82         0.2624   -2.0694   -4.1279 H         1 UNK         0.0000 
     83 H83         1.4831   -1.4619   -5.1449 H         1 UNK         0.0000 
     84 H84         3.2489   -2.0408   -3.5310 H         1 UNK         0.0000 
     85 H85         2.0875   -2.6348   -2.3961 H         1 UNK         0.0000 
     86 H86         3.3736   -4.2932   -3.9775 H         1 UNK         0.0000 
     87 H87         2.2622   -3.7981   -5.1994 H         1 UNK         0.0000 
     88 H88         0.3648   -4.5574   -3.8104 H         1 UNK         0.0000 
     89 H89         0.5928   -7.6622   -3.5507 H         1 UNK         0.0000 
     90 H90        -0.5763   -6.4981   -3.0494 H         1 UNK         0.0000 
     91 H91        -0.2258   -8.5628   -1.5776 H         1 UNK         0.0000 
     92 H92         1.3529   -8.0578   -1.1478 H         1 UNK         0.0000 
     93 H93         1.6657   -7.8457    1.5577 H         1 UNK         0.0000 
     94 H94        -0.3433   -7.2928    2.9635 H         1 UNK         0.0000 
     95 H95        -1.6710   -6.6670    2.0356 H         1 UNK         0.0000 
     96 H96        -0.8880   -5.0303    3.6795 H         1 UNK         0.0000 
     97 H97         0.7211   -5.0380    3.0186 H         1 UNK         0.0000 
     98 H98        -0.1045   -3.9802    0.9166 H         1 UNK         0.0000 
     99 H99        -1.7375   -4.1917    1.4188 H         1 UNK         0.0000 
    100 H100        0.2161   -2.4165    2.8823 H         1 UNK         0.0000 
@<TRIPOS>BOND
     1    1    7 nc   
     2    1    9 nc   
     3    1   21 nc   
     4    1   23 nc   
     5    1   33 nc   
     6    1   35 nc   
     7    2    3 2    
     8    3   51 am   BACKBONE|DICT|INTERRES
     9    3    4 1    
    10    4   52 1    
    11    4   53 1    
    12    4    5 1    
    13    5   55 1    
    14    5    6 1    
    15    5   54 1    
    16    6    7 2    
    17    6    8 1    
    18    8   10 1    
    19    8    9 1    
    20   10   57 1    
    21   10   56 1    
    22   10   11 1    
    23   11   12 1    
    24   11   58 1    
    25   11   59 1    
    26   12   60 1    
    27   12   61 1    
    28   12   13 1    
    29   13   62 1    
    30   13   14 1    
    31   13   63 1    
    32   14   64 1    
    33   14   65 1    
    34   14   15 1    
    35   15   16 am   BACKBONE|DICT|INTERRES
    36   15   66 1    
    37   16   17 2    
    38   16   18 1    
    39   18   67 1    
    40   18   19 1    
    41   18   68 1    
    42   19   69 1    
    43   19   20 1    
    44   19   70 1    
    45   20   21 2    
    46   20   22 am   BACKBONE|DICT|INTERRES
    47   22   23 1    
    48   22   24 1    
    49   24   71 1    
    50   24   25 1    
    51   24   72 1    
    52   25   26 1    
    53   25   73 1    
    54   25   74 1    
    55   26   27 1    
    56   26   75 1    
    57   26   76 1    
    58   27   77 1    
    59   27   28 am   BACKBONE|DICT|INTERRES
    60   28   30 1    
    61   28   29 2    
    62   30   31 1    
    63   30   78 1    
    64   30   79 1    
    65   31   80 1    
    66   31   32 1    
    67   31   81 1    
    68   32   34 am   BACKBONE|DICT|INTERRES
    69   32   33 2    
    70   34   35 1    
    71   34   36 1    
    72   36   37 1    
    73   36   82 1    
    74   36   83 1    
    75   37   85 1    
    76   37   38 1    
    77   37   84 1    
    78   38   86 1    
    79   38   39 1    
    80   38   87 1    
    81   39   40 am   BACKBONE|DICT|INTERRES
    82   39   88 1    
    83   40   42 1    
    84   40   41 2    
    85   42   43 1    
    86   42   89 1    
    87   42   90 1    
    88   43   92 1    
    89   43   44 1    
    90   43   91 1    
    91   44   46 am   BACKBONE|DICT|INTERRES
    92   44   45 2    
    93   46   47 1    
    94   46   48 1    
    95   47   93 1    
    96   48   49 1    
    97   48   94 1    
    98   48   95 1    
    99   49   97 1    
   100   49   96 1    
   101   49   50 1    
   102   50   51 1    
   103   50   98 1    
   104   50   99 1    
   105   51  100 1    
@<TRIPOS>SUBSTRUCTURE
     1 UNK         1 GROUP             0       ****    0 ROOT    
@<TRIPOS>MOLECULE
107_c2
100   105    1
SMALL
USER_CHARGES


@<TRIPOS>ATOM
      1 Fe1        -0.1417   -3.4392   -0.0083 Fe        1 UNK         0.0000 
      2 O2         -3.4519   -5.4247    2.4657 O.2       1 UNK         0.0000 
      3 C3         -2.3996   -5.5795    3.0730 C.2       1 UNK         0.0000 
      4 C4         -2.0361   -4.5865    4.2011 C.3       1 UNK         0.0000 
      5 C5         -2.1081   -3.0560    3.8574 C.3       1 UNK         0.0000 
      6 C6         -1.3414   -2.6479    2.5870 C.2       1 UNK         0.0000 
      7 O7         -1.7351   -3.0710    1.4952 O.co2     1 UNK         0.0000 
      8 N8         -0.1506   -1.9884    2.6076 N.am      1 UNK         0.0000 
      9 O9          0.6725   -2.0004    1.5562 O.co2     1 UNK         0.0000 
     10 C10         0.2657   -1.0297    3.6513 C.3       1 UNK         0.0000 
     11 C11         0.9797    0.2314    3.0791 C.3       1 UNK         0.0000 
     12 C12         0.9915    1.4847    3.9575 C.3       1 UNK         0.0000 
     13 C13         1.5966    2.6628    3.1665 C.3       1 UNK         0.0000 
     14 C14         1.3667    4.0248    3.8310 C.3       1 UNK         0.0000 
     15 N15         1.7545    5.1230    2.9458 N.am      1 UNK         0.0000 
     16 C16         0.9033    5.7724    2.1407 C.2       1 UNK         0.0000 
     17 O17        -0.2971    5.5207    2.1103 O.2       1 UNK         0.0000 
     18 C18         1.5180    6.8336    1.2222 C.3       1 UNK         0.0000 
     19 C19         0.5371    7.5541    0.2541 C.3       1 UNK         0.0000 
     20 C20        -0.0678    6.6774   -0.8654 C.2       1 UNK         0.0000 
     21 O21        -1.2709    6.4268   -0.8209 O.2       1 UNK         0.0000 
     22 N22         0.7085    6.2417   -1.8940 N.am      1 UNK         0.0000 
     23 O23         2.0644    6.6386   -1.9183 O.3       1 UNK         0.0000 
     24 C24         0.2434    5.4820   -3.0638 C.3       1 UNK         0.0000 
     25 C25         1.0109    4.1723   -3.3321 C.3       1 UNK         0.0000 
     26 C26         0.8656    3.1010   -2.2351 C.3       1 UNK         0.0000 
     27 N27         1.4442    1.8259   -2.6726 N.am      1 UNK         0.0000 
     28 C28         0.7331    0.7966   -3.1546 C.2       1 UNK         0.0000 
     29 O29        -0.4932    0.8127   -3.2270 O.2       1 UNK         0.0000 
     30 C30         1.5283   -0.4227   -3.6345 C.3       1 UNK         0.0000 
     31 C31         0.6688   -1.6807   -3.9582 C.3       1 UNK         0.0000 
     32 C32        -0.0074   -2.3387   -2.7449 C.2       1 UNK         0.0000 
     33 O33         0.3338   -1.9908   -1.6176 O.co2     1 UNK         0.0000 
     34 N34        -0.9211   -3.3471   -2.8429 N.am      1 UNK         0.0000 
     35 O35        -1.4619   -3.9420   -1.7751 O.co2     1 UNK         0.0000 
     36 C36        -1.4469   -3.8383   -4.1178 C.3       1 UNK         0.0000 
     37 C37        -0.4892   -4.7470   -4.9211 C.3       1 UNK         0.0000 
     38 C38         0.0834   -6.0047   -4.2155 C.3       1 UNK         0.0000 
     39 N39         1.1755   -5.8000   -3.2448 N.am      1 UNK         0.0000 
     40 C40         2.4066   -5.3411   -3.5288 C.2       1 UNK         0.0000 
     41 O41         2.7124   -4.9757   -4.6621 O.2       1 UNK         0.0000 
     42 C42         3.4755   -5.2417   -2.4104 C.3       1 UNK         0.0000 
     43 C43         3.1749   -5.8343   -0.9843 C.3       1 UNK         0.0000 
     44 C44         2.0396   -5.1047   -0.2531 C.2       1 UNK         0.0000 
     45 O45         1.6967   -3.9808   -0.6076 O.co2     1 UNK         0.0000 
     46 N46         1.2029   -5.6731    0.6439 N.am      1 UNK         0.0000 
     47 O47         0.0083   -5.1301    0.8082 O.co2     1 UNK         0.0000 
     48 C48         1.6990   -6.4148    1.8257 C.3       1 UNK         0.0000 
     49 C49         0.7667   -7.5365    2.3677 C.3       1 UNK         0.0000 
     50 C50        -0.3843   -7.1440    3.3470 C.3       1 UNK         0.0000 
     51 N51        -1.6040   -6.6058    2.7223 N.am      1 UNK         0.0000 
     52 H52        -2.7431   -4.7787    5.0012 H         1 UNK         0.0000 
     53 H53        -1.0893   -4.8103    4.6766 H         1 UNK         0.0000 
     54 H54        -3.1466   -2.7461    3.7638 H         1 UNK         0.0000 
     55 H55        -1.7678   -2.4879    4.7238 H         1 UNK         0.0000 
     56 H56         0.9193   -1.5269    4.3732 H         1 UNK         0.0000 
     57 H57        -0.6095   -0.7019    4.2120 H         1 UNK         0.0000 
     58 H58         0.5050    0.4979    2.1290 H         1 UNK         0.0000 
     59 H59         2.0114   -0.0347    2.8366 H         1 UNK         0.0000 
     60 H60        -0.0335    1.7349    4.2423 H         1 UNK         0.0000 
     61 H61         1.5502    1.3222    4.8819 H         1 UNK         0.0000 
     62 H62         2.6666    2.5088    3.0067 H         1 UNK         0.0000 
     63 H63         1.1527    2.6967    2.1675 H         1 UNK         0.0000 
     64 H64         1.8980    4.0863    4.7810 H         1 UNK         0.0000 
     65 H65         0.3111    4.1044    4.1087 H         1 UNK         0.0000 
     66 H66         2.7236    5.3970    2.9275 H         1 UNK         0.0000 
     67 H67         2.3993    6.4594    0.7012 H         1 UNK         0.0000 
     68 H68         1.9182    7.5931    1.8925 H         1 UNK         0.0000 
     69 H69        -0.2369    8.0830    0.8123 H         1 UNK         0.0000 
     70 H70         1.0722    8.3648   -0.2401 H         1 UNK         0.0000 
     71 H71         2.0934    7.3162   -2.6001 H         1 UNK         0.0000 
     72 H72        -0.8139    5.2264   -2.9454 H         1 UNK         0.0000 
     73 H73         0.2861    6.1308   -3.9399 H         1 UNK         0.0000 
     74 H74         2.0669    4.3885   -3.5057 H         1 UNK         0.0000 
     75 H75         0.6312    3.7598   -4.2695 H         1 UNK         0.0000 
     76 H76        -0.1916    2.9916   -1.9690 H         1 UNK         0.0000 
     77 H77         1.3327    3.4346   -1.3062 H         1 UNK         0.0000 
     78 H78         2.4455    1.7268   -2.6182 H         1 UNK         0.0000 
     79 H79         2.0267   -0.1123   -4.5485 H         1 UNK         0.0000 
     80 H80         2.3525   -0.6754   -2.9737 H         1 UNK         0.0000 
     81 H81         1.3549   -2.4287   -4.3495 H         1 UNK         0.0000 
     82 H82        -0.0174   -1.4932   -4.7774 H         1 UNK         0.0000 
     83 H83        -1.8013   -2.9952   -4.7199 H         1 UNK         0.0000 
     84 H84        -2.3548   -4.4204   -3.9308 H         1 UNK         0.0000 
     85 H85         0.3051   -4.1578   -5.3689 H         1 UNK         0.0000 
     86 H86        -1.0720   -5.0941   -5.7676 H         1 UNK         0.0000 
     87 H87        -0.7283   -6.4955   -3.6731 H         1 UNK         0.0000 
     88 H88         0.4037   -6.7264   -4.9725 H         1 UNK         0.0000 
     89 H89         0.9765   -6.0904   -2.3002 H         1 UNK         0.0000 
     90 H90         4.3550   -5.7471   -2.8201 H         1 UNK         0.0000 
     91 H91         3.8185   -4.2090   -2.3363 H         1 UNK         0.0000 
     92 H92         3.0543   -6.9125   -1.0238 H         1 UNK         0.0000 
     93 H93         4.0747   -5.7025   -0.3867 H         1 UNK         0.0000 
     94 H94         2.6936   -6.8165    1.6540 H         1 UNK         0.0000 
     95 H95         1.8691   -5.6927    2.6253 H         1 UNK         0.0000 
     96 H96         1.4072   -8.2095    2.9469 H         1 UNK         0.0000 
     97 H97         0.3913   -8.1391    1.5417 H         1 UNK         0.0000 
     98 H98        -0.6773   -8.0347    3.9113 H         1 UNK         0.0000 
     99 H99         0.0231   -6.4599    4.0913 H         1 UNK         0.0000 
    100 H100       -1.9397   -7.0852    1.8973 H         1 UNK         0.0000 
@<TRIPOS>BOND
     1    1    7 nc   
     2    1    9 nc   
     3    1   33 nc   
     4    1   35 nc   
     5    1   45 nc   
     6    1   47 nc   
     7    2    3 2    
     8    3    4 1    
     9    3   51 am   BACKBONE|DICT|INTERRES
    10    4   53 1    
    11    4   52 1    
    12    4    5 1    
    13    5   55 1    
    14    5    6 1    
    15    5   54 1    
    16    6    7 2    
    17    6    8 am   BACKBONE|DICT|INTERRES
    18    8   10 1    
    19    8    9 1    
    20   10   57 1    
    21   10   56 1    
    22   10   11 1    
    23   11   12 1    
    24   11   58 1    
    25   11   59 1    
    26   12   60 1    
    27   12   61 1    
    28   12   13 1    
    29   13   14 1    
    30   13   62 1    
    31   13   63 1    
    32   14   65 1    
    33   14   64 1    
    34   14   15 1    
    35   15   16 am   BACKBONE|DICT|INTERRES
    36   15   66 1    
    37   16   17 2    
    38   16   18 1    
    39   18   68 1    
    40   18   19 1    
    41   18   67 1    
    42   19   69 1    
    43   19   20 1    
    44   19   70 1    
    45   20   21 2    
    46   20   22 am   BACKBONE|DICT|INTERRES
    47   22   23 1    
    48   22   24 1    
    49   23   71 1    
    50   24   72 1    
    51   24   25 1    
    52   24   73 1    
    53   25   26 1    
    54   25   74 1    
    55   25   75 1    
    56   26   76 1    
    57   26   77 1    
    58   26   27 1    
    59   27   28 am   BACKBONE|DICT|INTERRES
    60   27   78 1    
    61   28   29 2    
    62   28   30 1    
    63   30   80 1    
    64   30   31 1    
    65   30   79 1    
    66   31   32 1    
    67   31   81 1    
    68   31   82 1    
    69   32   33 2    
    70   32   34 am   BACKBONE|DICT|INTERRES
    71   34   35 1    
    72   34   36 1    
    73   36   84 1    
    74   36   37 1    
    75   36   83 1    
    76   37   38 1    
    77   37   85 1    
    78   37   86 1    
    79   38   87 1    
    80   38   39 1    
    81   38   88 1    
    82   39   89 1    
    83   39   40 am   BACKBONE|DICT|INTERRES
    84   40   42 1    
    85   40   41 2    
    86   42   91 1    
    87   42   43 1    
    88   42   90 1    
    89   43   93 1    
    90   43   44 1    
    91   43   92 1    
    92   44   46 am   BACKBONE|DICT|INTERRES
    93   44   45 2    
    94   46   48 1    
    95   46   47 1    
    96   48   49 1    
    97   48   95 1    
    98   48   94 1    
    99   49   96 1    
   100   49   50 1    
   101   49   97 1    
   102   50   98 1    
   103   50   99 1    
   104   50   51 1    
   105   51  100 1    
@<TRIPOS>SUBSTRUCTURE
     1 UNK         1 GROUP             0       ****    0 ROOT    
@<TRIPOS>MOLECULE
107_c3
101   106    1
SMALL
USER_CHARGES


@<TRIPOS>ATOM
      1 Fe1         0.0536    0.8001    1.1071 Fe        1 UNK         0.0000 
      2 O2         -3.3277    4.7202    5.7572 O.2       1 UNK         0.0000 
      3 C3         -2.3589    4.5056    5.0386 C.2       1 UNK         0.0000 
      4 C4         -2.2968    5.1927    3.6572 C.3       1 UNK         0.0000 
      5 C5         -2.7518    4.3671    2.4163 C.3       1 UNK         0.0000 
      6 C6         -1.6579    3.4407    1.8939 C.2       1 UNK         0.0000 
      7 O7         -1.8708    2.2242    1.9424 O.co2     1 UNK         0.0000 
      8 N8         -0.4388    3.9341    1.5493 N.am      1 UNK         0.0000 
      9 O9          0.6402    3.1667    1.5079 O.co2     1 UNK         0.0000 
     10 C10        -0.1687    5.2676    0.9880 C.3       1 UNK         0.0000 
     11 C11         0.3630    5.1871   -0.4788 C.3       1 UNK         0.0000 
     12 C12         1.0179    6.4390   -1.0683 C.3       1 UNK         0.0000 
     13 C13         1.4876    6.2109   -2.5246 C.3       1 UNK         0.0000 
     14 C14         2.5832    5.1266   -2.7257 C.3       1 UNK         0.0000 
     15 N15         2.0824    3.7616   -2.9591 N.am      1 UNK         0.0000 
     16 C16         2.8267    2.6428   -2.8621 C.2       1 UNK         0.0000 
     17 O17         4.0032    2.6621   -2.5101 O.2       1 UNK         0.0000 
     18 C18         2.1930    1.3231   -3.3624 C.3       1 UNK         0.0000 
     19 C19         2.3558    0.0360   -2.5000 C.3       1 UNK         0.0000 
     20 C20         1.5451    0.0980   -1.2100 C.2       1 UNK         0.0000 
     21 O21         2.0293    0.7647   -0.2936 O.co2     1 UNK         0.0000 
     22 N22         0.3135   -0.4892   -1.0828 N.am      1 UNK         0.0000 
     23 O23        -0.6579    0.2185   -0.3149 O.co2     1 UNK         0.0000 
     24 C24        -0.3016   -1.4858   -1.9740 C.3       1 UNK         0.0000 
     25 C25        -1.6456   -2.1197   -1.4958 C.3       1 UNK         0.0000 
     26 C26        -2.2485   -3.1729   -2.4437 C.3       1 UNK         0.0000 
     27 N27        -1.4101   -4.3666   -2.5480 N.am      1 UNK         0.0000 
     28 C28        -1.8284   -5.6308   -2.4241 C.2       1 UNK         0.0000 
     29 O29        -3.0030   -5.9432   -2.2497 O.2       1 UNK         0.0000 
     30 C30        -0.7540   -6.7122   -2.5684 C.3       1 UNK         0.0000 
     31 C31        -0.9304   -7.9460   -1.6470 C.3       1 UNK         0.0000 
     32 C32        -0.5115   -7.7421   -0.1761 C.2       1 UNK         0.0000 
     33 O33         0.6717   -7.4926    0.0562 O.2       1 UNK         0.0000 
     34 N34        -1.4092   -7.9463    0.8238 N.am      1 UNK         0.0000 
     35 O35        -2.7730   -7.9338    0.4879 O.3       1 UNK         0.0000 
     36 C36        -1.1240   -7.9629    2.2636 C.3       1 UNK         0.0000 
     37 C37        -0.6503   -6.6322    2.8877 C.3       1 UNK         0.0000 
     38 C38        -1.6396   -5.4515    2.8167 C.3       1 UNK         0.0000 
     39 N39        -1.3522   -4.4494    3.8496 N.am      1 UNK         0.0000 
     40 C40        -0.4723   -3.4467    3.7281 C.2       1 UNK         0.0000 
     41 O41         0.1547   -3.2598    2.6913 O.2       1 UNK         0.0000 
     42 C42        -0.1839   -2.6070    4.9985 C.3       1 UNK         0.0000 
     43 C43        -0.6302   -1.1081    5.0536 C.3       1 UNK         0.0000 
     44 C44        -0.1283   -0.3101    3.8622 C.2       1 UNK         0.0000 
     45 O45        -0.7555   -0.4481    2.8068 O.co2     1 UNK         0.0000 
     46 N46         1.0260    0.3992    3.9147 N.am      1 UNK         0.0000 
     47 O47         1.7604    0.5735    2.8217 O.co2     1 UNK         0.0000 
     48 C48         1.5239    1.1742    5.0794 C.3       1 UNK         0.0000 
     49 C49         0.5214    2.1437    5.7852 C.3       1 UNK         0.0000 
     50 C50        -0.2333    3.1255    4.8665 C.3       1 UNK         0.0000 
     51 N51        -1.3714    3.7511    5.5381 N.am      1 UNK         0.0000 
     52 H52        -1.3564    5.7174    3.4971 H         1 UNK         0.0000 
     53 H53        -3.0378    5.9876    3.7270 H         1 UNK         0.0000 
     54 H54        -3.0078    5.0105    1.5714 H         1 UNK         0.0000 
     55 H55        -3.6664    3.8014    2.6239 H         1 UNK         0.0000 
     56 H56        -1.0199    5.9586    1.0377 H         1 UNK         0.0000 
     57 H57         0.6019    5.7322    1.6180 H         1 UNK         0.0000 
     58 H58         1.1209    4.4084   -0.5334 H         1 UNK         0.0000 
     59 H59        -0.4473    4.8473   -1.1200 H         1 UNK         0.0000 
     60 H60         0.3178    7.2716   -1.0220 H         1 UNK         0.0000 
     61 H61         1.8653    6.7300   -0.4461 H         1 UNK         0.0000 
     62 H62         0.6236    5.9925   -3.1525 H         1 UNK         0.0000 
     63 H63         1.8739    7.1608   -2.8940 H         1 UNK         0.0000 
     64 H64         3.2738    5.1469   -1.8781 H         1 UNK         0.0000 
     65 H65         3.1915    5.4063   -3.5879 H         1 UNK         0.0000 
     66 H66         1.0967    3.6537   -3.1286 H         1 UNK         0.0000 
     67 H67         2.7568    1.1172   -4.2663 H         1 UNK         0.0000 
     68 H68         1.1671    1.4365   -3.7083 H         1 UNK         0.0000 
     69 H69         2.0355   -0.8421   -3.0617 H         1 UNK         0.0000 
     70 H70         3.3972   -0.1660   -2.2598 H         1 UNK         0.0000 
     71 H71        -0.1916    0.5391    0.5710 H         1 UNK         0.0000 
     72 H72         0.4150   -2.2826   -2.1622 H         1 UNK         0.0000 
     73 H73        -0.4778   -1.0105   -2.9365 H         1 UNK         0.0000 
     74 H74        -1.5284   -2.5402   -0.4956 H         1 UNK         0.0000 
     75 H75        -2.3782   -1.3182   -1.3896 H         1 UNK         0.0000 
     76 H76        -2.3323   -2.7517   -3.4476 H         1 UNK         0.0000 
     77 H77        -3.2716   -3.4011   -2.1341 H         1 UNK         0.0000 
     78 H78        -0.4281   -4.2067   -2.6909 H         1 UNK         0.0000 
     79 H79        -0.8800   -7.0660   -3.5918 H         1 UNK         0.0000 
     80 H80         0.2698   -6.3332   -2.5514 H         1 UNK         0.0000 
     81 H81        -0.2308   -8.7009   -2.0045 H         1 UNK         0.0000 
     82 H82        -1.8942   -8.4363   -1.7937 H         1 UNK         0.0000 
     83 H83        -3.0099   -8.8645    0.4779 H         1 UNK         0.0000 
     84 H84        -2.0311   -8.2729    2.7869 H         1 UNK         0.0000 
     85 H85        -0.3908   -8.7447    2.4675 H         1 UNK         0.0000 
     86 H86         0.3046   -6.3331    2.4523 H         1 UNK         0.0000 
     87 H87        -0.4265   -6.8327    3.9353 H         1 UNK         0.0000 
     88 H88        -2.6558   -5.8093    2.9852 H         1 UNK         0.0000 
     89 H89        -1.6580   -5.0286    1.8081 H         1 UNK         0.0000 
     90 H90        -1.8121   -4.5467    4.7357 H         1 UNK         0.0000 
     91 H91        -0.6397   -3.0993    5.8523 H         1 UNK         0.0000 
     92 H92         0.8858   -2.6558    5.2023 H         1 UNK         0.0000 
     93 H93        -0.2701   -0.6531    5.9800 H         1 UNK         0.0000 
     94 H94        -1.7178   -1.0196    5.1175 H         1 UNK         0.0000 
     95 H95         1.9738    0.4803    5.7997 H         1 UNK         0.0000 
     96 H96         2.3606    1.8217    4.7684 H         1 UNK         0.0000 
     97 H97        -0.1889    1.5583    6.3650 H         1 UNK         0.0000 
     98 H98         1.0778    2.7252    6.5173 H         1 UNK         0.0000 
     99 H99        -0.6126    2.5141    4.0630 H         1 UNK         0.0000 
    100 H100        0.4358    3.8419    4.3869 H         1 UNK         0.0000 
    101 H101       -1.5469    3.4560    6.4820 H         1 UNK         0.0000 
@<TRIPOS>BOND
     1    1    7 nc   
     2    1    9 nc   
     3    1   21 nc   
     4    1   23 nc   
     5    1   45 nc   
     6    1   47 nc   
     7    2    3 2    
     8    3   51 am   BACKBONE|DICT|INTERRES
     9    3    4 1    
    10    4    5 1    
    11    4   52 1    
    12    4   53 1    
    13    5   55 1    
    14    5    6 1    
    15    5   54 1    
    16    6    7 2    
    17    6    8 am   BACKBONE|DICT|INTERRES
    18    8    9 1    
    19    8   10 1    
    20   10   56 1    
    21   10   57 1    
    22   10   11 1    
    23   11   12 1    
    24   11   58 1    
    25   11   59 1    
    26   12   60 1    
    27   12   61 1    
    28   12   13 1    
    29   13   14 1    
    30   13   62 1    
    31   13   63 1    
    32   14   64 1    
    33   14   15 1    
    34   14   65 1    
    35   15   16 am   BACKBONE|DICT|INTERRES
    36   15   66 1    
    37   16   17 2    
    38   16   18 1    
    39   18   19 1    
    40   18   67 1    
    41   18   68 1    
    42   19   70 1    
    43   19   20 1    
    44   19   69 1    
    45   20   22 am   BACKBONE|DICT|INTERRES
    46   20   21 2    
    47   22   23 1    
    48   22   24 1    
    49   23   71 1    
    50   24   25 1    
    51   24   72 1    
    52   24   73 1    
    53   25   75 1    
    54   25   74 1    
    55   25   26 1    
    56   26   77 1    
    57   26   27 1    
    58   26   76 1    
    59   27   28 am   BACKBONE|DICT|INTERRES
    60   27   78 1    
    61   28   29 2    
    62   28   30 1    
    63   30   31 1    
    64   30   79 1    
    65   30   80 1    
    66   31   32 1    
    67   31   81 1    
    68   31   82 1    
    69   32   33 2    
    70   32   34 am   BACKBONE|DICT|INTERRES
    71   34   36 1    
    72   34   35 1    
    73   35   83 1    
    74   36   85 1    
    75   36   84 1    
    76   36   37 1    
    77   37   87 1    
    78   37   38 1    
    79   37   86 1    
    80   38   88 1    
    81   38   39 1    
    82   38   89 1    
    83   39   90 1    
    84   39   40 am   BACKBONE|DICT|INTERRES
    85   40   42 1    
    86   40   41 2    
    87   42   92 1    
    88   42   91 1    
    89   42   43 1    
    90   43   93 1    
    91   43   44 1    
    92   43   94 1    
    93   44   46 am   BACKBONE|DICT|INTERRES
    94   44   45 2    
    95   46   48 1    
    96   46   47 1    
    97   48   95 1    
    98   48   49 1    
    99   48   96 1    
   100   49   97 1    
   101   49   98 1    
   102   49   50 1    
   103   50   51 1    
   104   50   99 1    
   105   50  100 1    
   106   51  101 1    
@<TRIPOS>SUBSTRUCTURE
     1 UNK         1 GROUP             0       ****    0 ROOT    
@<TRIPOS>MOLECULE
107_c4
100   105    1
SMALL
USER_CHARGES


@<TRIPOS>ATOM
      1 Fe1         0.3247    2.7437    1.0842 Fe        1 UNK         0.0000 
      2 O2         -0.7004   -4.4225    5.0106 O.2       1 UNK         0.0000 
      3 C3          0.4446   -4.2584    4.5993 C.2       1 UNK         0.0000 
      4 C4          1.2221   -5.3837    3.9048 C.3       1 UNK         0.0000 
      5 C5          0.4204   -6.6308    3.4469 C.3       1 UNK         0.0000 
      6 C6         -0.4042   -6.4678    2.1459 C.2       1 UNK         0.0000 
      7 O7         -1.0619   -5.4385    1.9972 O.2       1 UNK         0.0000 
      8 N8         -0.4355   -7.4551    1.2053 N.am      1 UNK         0.0000 
      9 O9          0.4345   -8.5600    1.3515 O.3       1 UNK         0.0000 
     10 C10        -1.2074   -7.4325   -0.0475 C.3       1 UNK         0.0000 
     11 C11        -0.3489   -7.4148   -1.3307 C.3       1 UNK         0.0000 
     12 C12         0.5447   -6.1745   -1.5299 C.3       1 UNK         0.0000 
     13 C13        -0.2194   -4.8826   -1.8916 C.3       1 UNK         0.0000 
     14 C14         0.7328   -3.7645   -2.3504 C.3       1 UNK         0.0000 
     15 N15         0.0415   -2.6053   -2.9216 N.am      1 UNK         0.0000 
     16 C16         0.3757   -1.3302   -2.6892 C.2       1 UNK         0.0000 
     17 O17         1.2702   -1.0246   -1.9091 O.2       1 UNK         0.0000 
     18 C18        -0.3517   -0.2534   -3.5179 C.3       1 UNK         0.0000 
     19 C19        -1.0010    0.9597   -2.7795 C.3       1 UNK         0.0000 
     20 C20        -0.2475    1.5606   -1.5731 C.2       1 UNK         0.0000 
     21 O21        -0.7577    1.4505   -0.4512 O.co2     1 UNK         0.0000 
     22 N22         0.9660    2.1761   -1.6919 N.am      1 UNK         0.0000 
     23 O23         1.7504    2.4961   -0.6528 O.co2     1 UNK         0.0000 
     24 C24         1.5813    2.5441   -2.9771 C.3       1 UNK         0.0000 
     25 C25         2.0106    4.0352   -3.1035 C.3       1 UNK         0.0000 
     26 C26         0.8986    5.0404   -3.4851 C.3       1 UNK         0.0000 
     27 N27         0.2302    5.7534   -2.3833 N.am      1 UNK         0.0000 
     28 C28         0.7485    6.7938   -1.7054 C.2       1 UNK         0.0000 
     29 O29         1.8922    7.1994   -1.8792 O.2       1 UNK         0.0000 
     30 C30        -0.1781    7.5153   -0.7062 C.3       1 UNK         0.0000 
     31 C31         0.0358    7.1668    0.7905 C.3       1 UNK         0.0000 
     32 C32        -0.2492    5.6845    1.0670 C.2       1 UNK         0.0000 
     33 O33         0.6714    4.8936    0.8677 O.co2     1 UNK         0.0000 
     34 N34        -1.4815    5.1956    1.4027 N.am      1 UNK         0.0000 
     35 O35        -1.7513    3.8893    1.4742 O.co2     1 UNK         0.0000 
     36 C36        -2.6528    6.0195    1.7675 C.3       1 UNK         0.0000 
     37 C37        -3.2036    5.7406    3.1885 C.3       1 UNK         0.0000 
     38 C38        -2.2566    6.1129    4.3478 C.3       1 UNK         0.0000 
     39 N39        -1.3441    5.0428    4.7812 N.am      1 UNK         0.0000 
     40 C40        -0.0127    5.1450    4.9059 C.2       1 UNK         0.0000 
     41 O41         0.6187    6.1095    4.4871 O.2       1 UNK         0.0000 
     42 C42         0.7178    4.0097    5.6497 C.3       1 UNK         0.0000 
     43 C43         1.8834    3.3103    4.8899 C.3       1 UNK         0.0000 
     44 C44         1.4422    2.6123    3.5974 C.2       1 UNK         0.0000 
     45 O45         1.7655    3.0905    2.5058 O.co2     1 UNK         0.0000 
     46 N46         0.5379    1.6028    3.5798 N.am      1 UNK         0.0000 
     47 O47        -0.0937    1.2190    2.4678 O.co2     1 UNK         0.0000 
     48 C48         0.3505    0.6504    4.6938 C.3       1 UNK         0.0000 
     49 C49         0.8563   -0.7525    4.2797 C.3       1 UNK         0.0000 
     50 C50         0.5854   -1.8663    5.2822 C.3       1 UNK         0.0000 
     51 N51         1.1236   -3.1162    4.7554 N.am      1 UNK         0.0000 
     52 H52         1.8988   -5.7280    4.6872 H         1 UNK         0.0000 
     53 H53         1.8686   -5.0127    3.1087 H         1 UNK         0.0000 
     54 H54        -0.1983   -7.0164    4.2575 H         1 UNK         0.0000 
     55 H55         1.1741   -7.3967    3.2810 H         1 UNK         0.0000 
     56 H56        -0.1549   -9.3011    1.5152 H         1 UNK         0.0000 
     57 H57        -1.8511   -8.3121   -0.0639 H         1 UNK         0.0000 
     58 H58        -1.8844   -6.5749   -0.0604 H         1 UNK         0.0000 
     59 H59        -1.0093   -7.5109   -2.1941 H         1 UNK         0.0000 
     60 H60         0.2725   -8.3114   -1.3464 H         1 UNK         0.0000 
     61 H61         1.1558   -6.0079   -0.6407 H         1 UNK         0.0000 
     62 H62         1.2482   -6.4079   -2.3321 H         1 UNK         0.0000 
     63 H63        -0.9390   -5.0939   -2.6846 H         1 UNK         0.0000 
     64 H64        -0.7948   -4.5369   -1.0297 H         1 UNK         0.0000 
     65 H65         1.3996   -4.1540   -3.1229 H         1 UNK         0.0000 
     66 H66         1.4039   -3.5008   -1.5269 H         1 UNK         0.0000 
     67 H67        -0.6766   -2.7877   -3.6000 H         1 UNK         0.0000 
     68 H68         0.3691    0.1233   -4.2405 H         1 UNK         0.0000 
     69 H69        -1.1088   -0.7135   -4.1509 H         1 UNK         0.0000 
     70 H70        -1.9753    0.6209   -2.4222 H         1 UNK         0.0000 
     71 H71        -1.2870    1.7379   -3.4894 H         1 UNK         0.0000 
     72 H72         2.4660    1.9095   -3.0950 H         1 UNK         0.0000 
     73 H73         0.9620    2.2980   -3.8445 H         1 UNK         0.0000 
     74 H74         2.7421    4.0678   -3.9054 H         1 UNK         0.0000 
     75 H75         2.5549    4.3709   -2.2221 H         1 UNK         0.0000 
     76 H76         1.3222    5.7845   -4.1650 H         1 UNK         0.0000 
     77 H77         0.1423    4.5326   -4.0854 H         1 UNK         0.0000 
     78 H78        -0.7189    5.4895   -2.1783 H         1 UNK         0.0000 
     79 H79        -1.2286    7.4460   -0.9823 H         1 UNK         0.0000 
     80 H80         0.0445    8.5748   -0.8157 H         1 UNK         0.0000 
     81 H81         1.0525    7.4217    1.0945 H         1 UNK         0.0000 
     82 H82        -0.5560    7.8179    1.4312 H         1 UNK         0.0000 
     83 H83        -3.4378    5.8221    1.0345 H         1 UNK         0.0000 
     84 H84        -2.4906    7.0940    1.6930 H         1 UNK         0.0000 
     85 H85        -4.1172    6.3231    3.3012 H         1 UNK         0.0000 
     86 H86        -3.5207    4.7042    3.2785 H         1 UNK         0.0000 
     87 H87        -2.8622    6.3752    5.2173 H         1 UNK         0.0000 
     88 H88        -1.7174    7.0323    4.1021 H         1 UNK         0.0000 
     89 H89        -1.7755    4.1595    4.9984 H         1 UNK         0.0000 
     90 H90         0.0307    3.2803    6.0771 H         1 UNK         0.0000 
     91 H91         1.1548    4.4887    6.5273 H         1 UNK         0.0000 
     92 H92         2.6790    4.0312    4.6842 H         1 UNK         0.0000 
     93 H93         2.3657    2.5795    5.5401 H         1 UNK         0.0000 
     94 H94         0.8265    0.9401    5.6377 H         1 UNK         0.0000 
     95 H95        -0.7182    0.6018    4.9307 H         1 UNK         0.0000 
     96 H96         1.9242   -0.6853    4.0733 H         1 UNK         0.0000 
     97 H97         0.3780   -1.0594    3.3491 H         1 UNK         0.0000 
     98 H98        -0.4911   -1.9176    5.4682 H         1 UNK         0.0000 
     99 H99         1.0385   -1.6292    6.2436 H         1 UNK         0.0000 
    100 H100        2.0754   -3.0935    4.4295 H         1 UNK         0.0000 
@<TRIPOS>BOND
     1    1   21 nc   
     2    1   23 nc   
     3    1   33 nc   
     4    1   35 nc   
     5    1   45 nc   
     6    1   47 nc   
     7    2    3 2    
     8    3   51 am   BACKBONE|DICT|INTERRES
     9    3    4 1    
    10    4   52 1    
    11    4    5 1    
    12    4   53 1    
    13    5   54 1    
    14    5    6 1    
    15    5   55 1    
    16    6    7 2    
    17    6    8 am   BACKBONE|DICT|INTERRES
    18    8    9 1    
    19    8   10 1    
    20    9   56 1    
    21   10   58 1    
    22   10   11 1    
    23   10   57 1    
    24   11   60 1    
    25   11   12 1    
    26   11   59 1    
    27   12   61 1    
    28   12   13 1    
    29   12   62 1    
    30   13   64 1    
    31   13   14 1    
    32   13   63 1    
    33   14   66 1    
    34   14   15 1    
    35   14   65 1    
    36   15   16 am   BACKBONE|DICT|INTERRES
    37   15   67 1    
    38   16   17 2    
    39   16   18 1    
    40   18   19 1    
    41   18   68 1    
    42   18   69 1    
    43   19   70 1    
    44   19   20 1    
    45   19   71 1    
    46   20   21 2    
    47   20   22 am   BACKBONE|DICT|INTERRES
    48   22   23 1    
    49   22   24 1    
    50   24   25 1    
    51   24   72 1    
    52   24   73 1    
    53   25   75 1    
    54   25   26 1    
    55   25   74 1    
    56   26   27 1    
    57   26   76 1    
    58   26   77 1    
    59   27   78 1    
    60   27   28 am   BACKBONE|DICT|INTERRES
    61   28   30 1    
    62   28   29 2    
    63   30   31 1    
    64   30   79 1    
    65   30   80 1    
    66   31   81 1    
    67   31   32 1    
    68   31   82 1    
    69   32   33 2    
    70   32   34 am   BACKBONE|DICT|INTERRES
    71   34   36 1    
    72   34   35 1    
    73   36   37 1    
    74   36   83 1    
    75   36   84 1    
    76   37   85 1    
    77   37   86 1    
    78   37   38 1    
    79   38   39 1    
    80   38   87 1    
    81   38   88 1    
    82   39   40 am   BACKBONE|DICT|INTERRES
    83   39   89 1    
    84   40   42 1    
    85   40   41 2    
    86   42   90 1    
    87   42   91 1    
    88   42   43 1    
    89   43   93 1    
    90   43   44 1    
    91   43   92 1    
    92   44   46 am   BACKBONE|DICT|INTERRES
    93   44   45 2    
    94   46   48 1    
    95   46   47 1    
    96   48   95 1    
    97   48   94 1    
    98   48   49 1    
    99   49   50 1    
   100   49   96 1    
   101   49   97 1    
   102   50   98 1    
   103   50   99 1    
   104   50   51 1    
   105   51  100 1    
@<TRIPOS>SUBSTRUCTURE
     1 UNK         1 GROUP             0       ****    0 ROOT    
@<TRIPOS>MOLECULE
108_c1
82   87    1
SMALL
USER_CHARGES


@<TRIPOS>ATOM
      1 Fe1        -0.3365    0.2481   -0.1287 Fe        1 UNK         0.0000 
      2 O2         -0.9923    1.9138   -1.5542 O.co2     1 UNK         0.0000 
      3 N3          0.0459    2.7199   -1.7688 N.am      1 UNK         0.0000 
      4 C4         -0.2555    3.7968   -2.7371 C.3       1 UNK         0.0000 
      5 C5         -0.0357    3.3808   -4.2190 C.3       1 UNK         0.0000 
      6 C6         -0.6394    2.0209   -4.6636 C.3       1 UNK         0.0000 
      7 C7          0.3233    0.8163   -4.5193 C.3       1 UNK         0.0000 
      8 N8         -0.3588   -0.4831   -4.5282 N.am      1 UNK         0.0000 
      9 C9          0.2707   -1.6646   -4.4596 C.2       1 UNK         0.0000 
     10 O10         1.4913   -1.7597   -4.5235 O.2       1 UNK         0.0000 
     11 C11        -0.5957   -2.9217   -4.2198 C.3       1 UNK         0.0000 
     12 C12        -1.4612   -2.9944   -2.9092 C.3       1 UNK         0.0000 
     13 C13        -0.9647   -2.1406   -1.7236 C.2       1 UNK         0.0000 
     14 O14        -1.3840   -0.9830   -1.6109 O.co2     1 UNK         0.0000 
     15 N15         0.0206   -2.5595   -0.8857 N.am      1 UNK         0.0000 
     16 O16         0.6887   -1.7432   -0.0679 O.co2     1 UNK         0.0000 
     17 C17         0.2804   -3.9790   -0.5789 C.3       1 UNK         0.0000 
     18 C18        -0.2545   -4.3682    0.8313 C.3       1 UNK         0.0000 
     19 C19         0.6615   -5.3363    1.6046 C.3       1 UNK         0.0000 
     20 C20         0.0751   -5.8654    2.9380 C.3       1 UNK         0.0000 
     21 C21        -0.5557   -4.8303    3.9004 C.3       1 UNK         0.0000 
     22 N22         0.2614   -3.6272    4.1073 N.am      1 UNK         0.0000 
     23 C23        -0.2438   -2.4181    4.3958 C.2       1 UNK         0.0000 
     24 O24        -1.4461   -2.2304    4.5642 O.2       1 UNK         0.0000 
     25 C25         0.7438   -1.2462    4.5042 C.3       1 UNK         0.0000 
     26 C26         0.1201    0.1661    4.2817 C.3       1 UNK         0.0000 
     27 C27        -0.3312    0.3933    2.8260 C.2       1 UNK         0.0000 
     28 O28         0.5034    0.2935    1.9200 O.co2     1 UNK         0.0000 
     29 N29        -1.6105    0.7167    2.4923 N.am      1 UNK         0.0000 
     30 O30        -2.0774    0.7168    1.2371 O.co2     1 UNK         0.0000 
     31 C31        -2.5292    1.3747    3.4427 C.3       1 UNK         0.0000 
     32 C32        -2.1513    2.8499    3.7758 C.3       1 UNK         0.0000 
     33 C33        -1.6165    3.7305    2.6078 C.3       1 UNK         0.0000 
     34 C34        -0.0771    3.9007    2.6033 C.3       1 UNK         0.0000 
     35 N35         0.4725    4.3693    1.3266 N.am      1 UNK         0.0000 
     36 C36         1.7836    4.3748    1.0406 C.2       1 UNK         0.0000 
     37 O37         2.6384    4.0328    1.8502 O.2       1 UNK         0.0000 
     38 C38         2.1986    4.7498   -0.3918 C.3       1 UNK         0.0000 
     39 C39         2.3995    3.5463   -1.3693 C.3       1 UNK         0.0000 
     40 C40         1.2966    2.4703   -1.2959 C.2       1 UNK         0.0000 
     41 O41         1.5194    1.4073   -0.7001 O.co2     1 UNK         0.0000 
     42 H42        -1.3047    4.0893   -2.6107 H         1 UNK         0.0000 
     43 H43         0.3031    4.7129   -2.5352 H         1 UNK         0.0000 
     44 H44         1.0347    3.3937   -4.4320 H         1 UNK         0.0000 
     45 H45        -0.4614    4.1701   -4.8406 H         1 UNK         0.0000 
     46 H46        -0.9311    2.0870   -5.7122 H         1 UNK         0.0000 
     47 H47        -1.5716    1.8356   -4.1210 H         1 UNK         0.0000 
     48 H48         0.8500    0.8834   -3.5678 H         1 UNK         0.0000 
     49 H49         1.1118    0.8719   -5.2744 H         1 UNK         0.0000 
     50 H50        -1.3620   -0.4722   -4.4528 H         1 UNK         0.0000 
     51 H51        -1.1933   -3.1492   -5.1032 H         1 UNK         0.0000 
     52 H52         0.1043   -3.7576   -4.1685 H         1 UNK         0.0000 
     53 H53        -2.4399   -2.5887   -3.1695 H         1 UNK         0.0000 
     54 H54        -1.7175   -4.0157   -2.6267 H         1 UNK         0.0000 
     55 H55         1.3663   -4.1141   -0.6098 H         1 UNK         0.0000 
     56 H56        -0.1005   -4.6821   -1.3219 H         1 UNK         0.0000 
     57 H57        -0.3758   -3.4785    1.4473 H         1 UNK         0.0000 
     58 H58        -1.2618   -4.7710    0.7380 H         1 UNK         0.0000 
     59 H59         1.6148   -4.8397    1.8028 H         1 UNK         0.0000 
     60 H60         0.8985   -6.1877    0.9665 H         1 UNK         0.0000 
     61 H61        -0.6894   -6.6100    2.7057 H         1 UNK         0.0000 
     62 H62         0.8526   -6.4172    3.4733 H         1 UNK         0.0000 
     63 H63        -1.5286   -4.5451    3.4884 H         1 UNK         0.0000 
     64 H64        -0.7479   -5.2865    4.8742 H         1 UNK         0.0000 
     65 H65         1.2601   -3.7236    4.0211 H         1 UNK         0.0000 
     66 H66         1.1317   -1.2827    5.5198 H         1 UNK         0.0000 
     67 H67         1.6260   -1.3887    3.8836 H         1 UNK         0.0000 
     68 H68         0.8950    0.9127    4.4592 H         1 UNK         0.0000 
     69 H69        -0.6165    0.3959    5.0515 H         1 UNK         0.0000 
     70 H70        -2.6463    0.7800    4.3547 H         1 UNK         0.0000 
     71 H71        -3.5407    1.3849    3.0227 H         1 UNK         0.0000 
     72 H72        -3.0350    3.3252    4.2019 H         1 UNK         0.0000 
     73 H73        -1.4177    2.8396    4.5832 H         1 UNK         0.0000 
     74 H74        -1.9720    3.3519    1.6437 H         1 UNK         0.0000 
     75 H75        -2.0524    4.7275    2.6931 H         1 UNK         0.0000 
     76 H76         0.2360    4.5445    3.4298 H         1 UNK         0.0000 
     77 H77         0.3906    2.9421    2.8204 H         1 UNK         0.0000 
     78 H78        -0.1831    4.6365    0.6081 H         1 UNK         0.0000 
     79 H79         1.4944    5.4680   -0.8098 H         1 UNK         0.0000 
     80 H80         3.1281    5.3184   -0.3412 H         1 UNK         0.0000 
     81 H81         3.3608    3.0788   -1.1412 H         1 UNK         0.0000 
     82 H82         2.5450    3.8811   -2.3979 H         1 UNK         0.0000 
@<TRIPOS>BOND
     1    1    2 nc   
     2    1   14 nc   
     3    1   16 nc   
     4    1   28 nc   
     5    1   30 nc   
     6    1   41 nc   
     7    2    3 1    
     8    3   40 am   BACKBONE|DICT|INTERRES
     9    3    4 1    
    10    4   42 1    
    11    4   43 1    
    12    4    5 1    
    13    5    6 1    
    14    5   44 1    
    15    5   45 1    
    16    6    7 1    
    17    6   47 1    
    18    6   46 1    
    19    7   48 1    
    20    7    8 1    
    21    7   49 1    
    22    8    9 am   BACKBONE|DICT|INTERRES
    23    8   50 1    
    24    9   10 2    
    25    9   11 1    
    26   11   52 1    
    27   11   12 1    
    28   11   51 1    
    29   12   54 1    
    30   12   13 1    
    31   12   53 1    
    32   13   14 2    
    33   13   15 am   BACKBONE|DICT|INTERRES
    34   15   17 1    
    35   15   16 1    
    36   17   18 1    
    37   17   55 1    
    38   17   56 1    
    39   18   57 1    
    40   18   19 1    
    41   18   58 1    
    42   19   59 1    
    43   19   20 1    
    44   19   60 1    
    45   20   62 1    
    46   20   21 1    
    47   20   61 1    
    48   21   22 1    
    49   21   64 1    
    50   21   63 1    
    51   22   65 1    
    52   22   23 am   BACKBONE|DICT|INTERRES
    53   23   25 1    
    54   23   24 2    
    55   25   66 1    
    56   25   26 1    
    57   25   67 1    
    58   26   68 1    
    59   26   69 1    
    60   26   27 1    
    61   27   28 2    
    62   27   29 am   BACKBONE|DICT|INTERRES
    63   29   31 1    
    64   29   30 1    
    65   31   32 1    
    66   31   70 1    
    67   31   71 1    
    68   32   72 1    
    69   32   73 1    
    70   32   33 1    
    71   33   75 1    
    72   33   34 1    
    73   33   74 1    
    74   34   76 1    
    75   34   35 1    
    76   34   77 1    
    77   35   36 am   BACKBONE|DICT|INTERRES
    78   35   78 1    
    79   36   37 2    
    80   36   38 1    
    81   38   80 1    
    82   38   39 1    
    83   38   79 1    
    84   39   40 1    
    85   39   81 1    
    86   39   82 1    
    87   40   41 2    
@<TRIPOS>SUBSTRUCTURE
     1 UNK         1 GROUP             0       ****    0 ROOT    
@<TRIPOS>MOLECULE
109_c1
79   84    1
SMALL
USER_CHARGES


@<TRIPOS>ATOM
      1 Fe1         0.2770    0.1602   -0.2360 Fe        1 UNK         0.0000 
      2 O2          1.0203    1.5107   -1.7056 O.co2     1 UNK         0.0000 
      3 N3          0.0978    1.7007   -2.6294 N.am      1 UNK         0.0000 
      4 C4          0.5108    2.6105   -3.7070 C.3       1 UNK         0.0000 
      5 C5          0.1225    4.0958   -3.4602 C.3       1 UNK         0.0000 
      6 C6          0.5536    4.7009   -2.0946 C.3       1 UNK         0.0000 
      7 C7         -0.4817    4.4920   -0.9604 C.3       1 UNK         0.0000 
      8 N8          0.1038    4.5875    0.3753 N.am      1 UNK         0.0000 
      9 C9         -0.5926    4.4403    1.5078 C.2       1 UNK         0.0000 
     10 O10        -1.8126    4.3387    1.5185 O.2       1 UNK         0.0000 
     11 C11         0.2073    4.2304    2.8104 C.3       1 UNK         0.0000 
     12 C12         1.1230    2.9613    2.8798 C.3       1 UNK         0.0000 
     13 C13         0.6670    1.7251    2.0781 C.2       1 UNK         0.0000 
     14 O14         1.0710    1.4860    0.9370 O.co2     1 UNK         0.0000 
     15 N15        -0.3000    0.8826    2.4738 N.am      1 UNK         0.0000 
     16 O16        -0.7595    0.0139    1.5920 O.co2     1 UNK         0.0000 
     17 C17        -0.8825    0.8167    3.8147 C.3       1 UNK         0.0000 
     18 C18         0.0778    0.2419    4.8890 C.3       1 UNK         0.0000 
     19 C19         0.0309   -1.2818    5.1606 C.3       1 UNK         0.0000 
     20 C20         0.6909   -2.2095    4.1132 C.3       1 UNK         0.0000 
     21 N21        -0.2114   -2.6925    3.0652 N.am      1 UNK         0.0000 
     22 C22        -0.0161   -3.8411    2.3941 C.2       1 UNK         0.0000 
     23 O23         0.9289   -4.5968    2.6010 O.2       1 UNK         0.0000 
     24 C24        -0.9668   -4.1631    1.2256 C.3       1 UNK         0.0000 
     25 C25        -0.2959   -4.0868   -0.1751 C.3       1 UNK         0.0000 
     26 C26         0.2302   -2.6720   -0.4697 C.2       1 UNK         0.0000 
     27 O27        -0.4598   -1.6686   -0.3392 O.co2     1 UNK         0.0000 
     28 N28         1.5114   -2.3678   -0.7766 N.am      1 UNK         0.0000 
     29 O29         1.8502   -1.0822   -0.7207 O.co2     1 UNK         0.0000 
     30 C30         2.3862   -3.2387   -1.5690 C.3       1 UNK         0.0000 
     31 C31         1.8602   -3.4032   -3.0241 C.3       1 UNK         0.0000 
     32 C32         1.8488   -2.0954   -3.8564 C.3       1 UNK         0.0000 
     33 C33         0.8069   -2.0868   -4.9898 C.3       1 UNK         0.0000 
     34 N34        -0.5111   -1.6346   -4.5230 N.am      1 UNK         0.0000 
     35 C35        -1.1830   -0.5926   -5.0293 C.2       1 UNK         0.0000 
     36 O36        -0.8336    0.0171   -6.0325 O.2       1 UNK         0.0000 
     37 C37        -2.4037   -0.1082   -4.2373 C.3       1 UNK         0.0000 
     38 C38        -2.2057    1.2749   -3.5620 C.3       1 UNK         0.0000 
     39 C39        -1.1591    1.2483   -2.4439 C.2       1 UNK         0.0000 
     40 O40        -1.4014    0.7418   -1.3395 O.co2     1 UNK         0.0000 
     41 H41         0.1179    2.2720   -4.6663 H         1 UNK         0.0000 
     42 H42         1.5993    2.5487   -3.8306 H         1 UNK         0.0000 
     43 H43         0.5615    4.6848   -4.2665 H         1 UNK         0.0000 
     44 H44        -0.9529    4.1982   -3.5981 H         1 UNK         0.0000 
     45 H45         0.7051    5.7767   -2.2157 H         1 UNK         0.0000 
     46 H46         1.5276    4.2769   -1.8176 H         1 UNK         0.0000 
     47 H47        -1.3392    5.1630   -1.0704 H         1 UNK         0.0000 
     48 H48        -0.9062    3.4898   -1.0277 H         1 UNK         0.0000 
     49 H49         1.0975    4.7079    0.4292 H         1 UNK         0.0000 
     50 H50        -0.5094    4.1564    3.6342 H         1 UNK         0.0000 
     51 H51         0.7788    5.1257    3.0473 H         1 UNK         0.0000 
     52 H52         1.4006    2.7274    3.9113 H         1 UNK         0.0000 
     53 H53         2.0716    3.2413    2.4222 H         1 UNK         0.0000 
     54 H54        -1.8328    0.2679    3.8218 H         1 UNK         0.0000 
     55 H55        -1.1550    1.8395    4.0903 H         1 UNK         0.0000 
     56 H56        -0.1782    0.7351    5.8232 H         1 UNK         0.0000 
     57 H57         1.1076    0.5321    4.6732 H         1 UNK         0.0000 
     58 H58         0.5946   -1.4192    6.0822 H         1 UNK         0.0000 
     59 H59        -0.9846   -1.6086    5.3954 H         1 UNK         0.0000 
     60 H60         1.5410   -1.7109    3.6387 H         1 UNK         0.0000 
     61 H61         1.1220   -3.0669    4.6424 H         1 UNK         0.0000 
     62 H62        -0.9222   -2.0471    2.7430 H         1 UNK         0.0000 
     63 H63        -1.8847   -3.5802    1.2587 H         1 UNK         0.0000 
     64 H64        -1.3098   -5.1826    1.3739 H         1 UNK         0.0000 
     65 H65        -1.0542   -4.3271   -0.9189 H         1 UNK         0.0000 
     66 H66         0.4470   -4.8697   -0.2958 H         1 UNK         0.0000 
     67 H67         3.4058   -2.8250   -1.5954 H         1 UNK         0.0000 
     68 H68         2.4874   -4.2170   -1.0841 H         1 UNK         0.0000 
     69 H69         2.4698   -4.1481   -3.5489 H         1 UNK         0.0000 
     70 H70         0.8612   -3.8428   -2.9646 H         1 UNK         0.0000 
     71 H71         1.6763   -1.2076   -3.2345 H         1 UNK         0.0000 
     72 H72         2.8496   -1.9483   -4.2618 H         1 UNK         0.0000 
     73 H73         1.1762   -1.4545   -5.8023 H         1 UNK         0.0000 
     74 H74         0.7002   -3.0878   -5.4146 H         1 UNK         0.0000 
     75 H75        -0.9696   -2.1809   -3.8152 H         1 UNK         0.0000 
     76 H76        -3.2094   -0.0063   -4.9614 H         1 UNK         0.0000 
     77 H77        -2.7830   -0.8474   -3.5282 H         1 UNK         0.0000 
     78 H78        -2.0558    2.0606   -4.3026 H         1 UNK         0.0000 
     79 H79        -3.1442    1.5627   -3.0933 H         1 UNK         0.0000 
@<TRIPOS>BOND
     1    1    2 nc   
     2    1   14 nc   
     3    1   16 nc   
     4    1   27 nc   
     5    1   29 nc   
     6    1   40 nc   
     7    2    3 1    
     8    3   39 am   BACKBONE|DICT|INTERRES
     9    3    4 1    
    10    4   42 1    
    11    4    5 1    
    12    4   41 1    
    13    5    6 1    
    14    5   43 1    
    15    5   44 1    
    16    6   46 1    
    17    6    7 1    
    18    6   45 1    
    19    7    8 1    
    20    7   47 1    
    21    7   48 1    
    22    8   49 1    
    23    8    9 am   BACKBONE|DICT|INTERRES
    24    9   11 1    
    25    9   10 2    
    26   11   51 1    
    27   11   50 1    
    28   11   12 1    
    29   12   52 1    
    30   12   13 1    
    31   12   53 1    
    32   13   14 2    
    33   13   15 am   BACKBONE|DICT|INTERRES
    34   15   17 1    
    35   15   16 1    
    36   17   54 1    
    37   17   55 1    
    38   17   18 1    
    39   18   19 1    
    40   18   56 1    
    41   18   57 1    
    42   19   59 1    
    43   19   58 1    
    44   19   20 1    
    45   20   61 1    
    46   20   21 1    
    47   20   60 1    
    48   21   22 am   BACKBONE|DICT|INTERRES
    49   21   62 1    
    50   22   23 2    
    51   22   24 1    
    52   24   63 1    
    53   24   64 1    
    54   24   25 1    
    55   25   26 1    
    56   25   65 1    
    57   25   66 1    
    58   26   27 2    
    59   26   28 am   BACKBONE|DICT|INTERRES
    60   28   29 1    
    61   28   30 1    
    62   30   68 1    
    63   30   31 1    
    64   30   67 1    
    65   31   70 1    
    66   31   32 1    
    67   31   69 1    
    68   32   71 1    
    69   32   33 1    
    70   32   72 1    
    71   33   34 1    
    72   33   73 1    
    73   33   74 1    
    74   34   75 1    
    75   34   35 am   BACKBONE|DICT|INTERRES
    76   35   37 1    
    77   35   36 2    
    78   37   38 1    
    79   37   77 1    
    80   37   76 1    
    81   38   79 1    
    82   38   39 1    
    83   38   78 1    
    84   39   40 2    
@<TRIPOS>SUBSTRUCTURE
     1 UNK         1 GROUP             0       ****    0 ROOT    
@<TRIPOS>MOLECULE
110_c1
91   96    1
SMALL
USER_CHARGES


@<TRIPOS>ATOM
      1 Fe1         0.2944   -0.2224   -0.0020 Fe        1 UNK         0.0000 
      2 O2          1.1234   -0.0741   -2.0328 O.co2     1 UNK         0.0000 
      3 N3          0.1338   -0.5464   -2.7892 N.am      1 UNK         0.0000 
      4 C4          0.5768   -1.5546   -3.7730 C.3       1 UNK         0.0000 
      5 C5          0.2439   -3.0166   -3.3688 C.3       1 UNK         0.0000 
      6 C6          1.2725   -4.0506   -3.8685 C.3       1 UNK         0.0000 
      7 C7          0.7875   -5.5166   -3.8243 C.3       1 UNK         0.0000 
      8 C8          0.2051   -6.0289   -2.4882 C.3       1 UNK         0.0000 
      9 N9          1.0849   -5.8130   -1.3282 N.am      1 UNK         0.0000 
     10 C10         0.6721   -5.3577   -0.1373 C.2       1 UNK         0.0000 
     11 O11        -0.5000   -5.0747    0.0840 O.2       1 UNK         0.0000 
     12 C12         1.7160   -5.2072    0.9875 C.3       1 UNK         0.0000 
     13 C13         2.1810   -3.7715    1.4018 C.3       1 UNK         0.0000 
     14 C14         1.2254   -2.6139    1.0587 C.2       1 UNK         0.0000 
     15 O15         1.3682   -1.9862    0.0063 O.co2     1 UNK         0.0000 
     16 N16         0.1666   -2.2676    1.8286 N.am      1 UNK         0.0000 
     17 O17        -0.8203   -1.5109    1.3460 O.co2     1 UNK         0.0000 
     18 C18         0.1463   -2.4683    3.3026 C.3       1 UNK         0.0000 
     19 C19        -0.8279   -1.5436    4.0927 C.3       1 UNK         0.0000 
     20 C20        -0.5826   -1.4538    5.6101 C.3       1 UNK         0.0000 
     21 C21        -1.6473   -0.6110    6.3537 C.3       1 UNK         0.0000 
     22 C22        -1.9086    0.8216    5.8190 C.3       1 UNK         0.0000 
     23 N23        -0.6797    1.5979    5.6279 N.am      1 UNK         0.0000 
     24 C24        -0.3469    2.4905    4.6811 C.2       1 UNK         0.0000 
     25 O25         0.7454    3.0339    4.7695 O.2       1 UNK         0.0000 
     26 C26        -1.3022    2.8708    3.5285 C.3       1 UNK         0.0000 
     27 C27        -0.6100    3.3889    2.2246 C.3       1 UNK         0.0000 
     28 C28         0.0120    2.2364    1.4259 C.2       1 UNK         0.0000 
     29 O29        -0.6589    1.2365    1.1695 O.co2     1 UNK         0.0000 
     30 N30         1.3047    2.2104    1.0150 N.am      1 UNK         0.0000 
     31 O31         1.8997    1.0483    0.7419 O.co2     1 UNK         0.0000 
     32 C32         1.9888    3.4066    0.4525 C.3       1 UNK         0.0000 
     33 C33         2.9096    3.1568   -0.7942 C.3       1 UNK         0.0000 
     34 C34         2.8513    4.1880   -1.9462 C.3       1 UNK         0.0000 
     35 C35         1.7717    3.8907   -3.0123 C.3       1 UNK         0.0000 
     36 C36         0.3241    4.0794   -2.5193 C.3       1 UNK         0.0000 
     37 C37        -0.7432    3.9929   -3.6287 C.3       1 UNK         0.0000 
     38 N38        -0.9726    2.6224   -4.0961 N.am      1 UNK         0.0000 
     39 C39        -2.1651    2.0079   -4.1237 C.2       1 UNK         0.0000 
     40 O40        -3.2050    2.5439   -3.7582 O.2       1 UNK         0.0000 
     41 C41        -2.1907    0.5539   -4.6154 C.3       1 UNK         0.0000 
     42 C42        -2.2907   -0.5180   -3.4938 C.3       1 UNK         0.0000 
     43 C43        -1.1702   -0.3910   -2.4530 C.2       1 UNK         0.0000 
     44 O44        -1.4281   -0.0348   -1.3008 O.co2     1 UNK         0.0000 
     45 H45         1.6657   -1.4787   -3.8721 H         1 UNK         0.0000 
     46 H46         0.2111   -1.3378   -4.7787 H         1 UNK         0.0000 
     47 H47         0.1744   -3.1028   -2.2864 H         1 UNK         0.0000 
     48 H48        -0.7452   -3.2657   -3.7533 H         1 UNK         0.0000 
     49 H49         2.1847   -3.9539   -3.2778 H         1 UNK         0.0000 
     50 H50         1.5571   -3.8197   -4.8956 H         1 UNK         0.0000 
     51 H51         0.0266   -5.6544   -4.5957 H         1 UNK         0.0000 
     52 H52         1.6121   -6.1679   -4.1209 H         1 UNK         0.0000 
     53 H53        -0.7591   -5.5353   -2.3332 H         1 UNK         0.0000 
     54 H54        -0.0100   -7.0974   -2.5626 H         1 UNK         0.0000 
     55 H55         2.0459   -6.0979   -1.4234 H         1 UNK         0.0000 
     56 H56         2.5824   -5.8473    0.8211 H         1 UNK         0.0000 
     57 H57         1.2492   -5.6502    1.8674 H         1 UNK         0.0000 
     58 H58         3.0778   -3.5671    0.8110 H         1 UNK         0.0000 
     59 H59         2.5642   -3.7265    2.4202 H         1 UNK         0.0000 
     60 H60        -0.0739   -3.5123    3.5321 H         1 UNK         0.0000 
     61 H61         1.1517   -2.2996    3.7011 H         1 UNK         0.0000 
     62 H62        -0.7684   -0.5344    3.6864 H         1 UNK         0.0000 
     63 H63        -1.8466   -1.8915    3.9126 H         1 UNK         0.0000 
     64 H64         0.4042   -1.0251    5.7905 H         1 UNK         0.0000 
     65 H65        -0.5603   -2.4558    6.0412 H         1 UNK         0.0000 
     66 H66        -1.3770   -0.5522    7.4099 H         1 UNK         0.0000 
     67 H67        -2.5951   -1.1529    6.3386 H         1 UNK         0.0000 
     68 H68        -2.4663    0.7409    4.8858 H         1 UNK         0.0000 
     69 H69        -2.5430    1.3628    6.5257 H         1 UNK         0.0000 
     70 H70         0.0405    1.4792    6.3232 H         1 UNK         0.0000 
     71 H71        -2.0347    2.1078    3.2906 H         1 UNK         0.0000 
     72 H72        -1.8958    3.6888    3.9272 H         1 UNK         0.0000 
     73 H73         0.0638    4.2242    2.4061 H         1 UNK         0.0000 
     74 H74        -1.3810    3.8035    1.5720 H         1 UNK         0.0000 
     75 H75         1.2719    4.1970    0.2170 H         1 UNK         0.0000 
     76 H76         2.6049    3.8270    1.2500 H         1 UNK         0.0000 
     77 H77         2.7293    2.1749   -1.2327 H         1 UNK         0.0000 
     78 H78         3.9356    3.0971   -0.4290 H         1 UNK         0.0000 
     79 H79         3.8135    4.1678   -2.4602 H         1 UNK         0.0000 
     80 H80         2.7580    5.2065   -1.5643 H         1 UNK         0.0000 
     81 H81         1.8993    2.8726   -3.3883 H         1 UNK         0.0000 
     82 H82         1.9454    4.5431   -3.8717 H         1 UNK         0.0000 
     83 H83         0.0968    3.3487   -1.7417 H         1 UNK         0.0000 
     84 H84         0.2470    5.0573   -2.0422 H         1 UNK         0.0000 
     85 H85        -0.4235    4.5823   -4.4907 H         1 UNK         0.0000 
     86 H86        -1.6593    4.4794   -3.2813 H         1 UNK         0.0000 
     87 H87        -0.1598    2.0940   -4.3762 H         1 UNK         0.0000 
     88 H88        -1.3612    0.3377   -5.2854 H         1 UNK         0.0000 
     89 H89        -3.0626    0.4510   -5.2595 H         1 UNK         0.0000 
     90 H90        -2.2895   -1.5204   -3.9220 H         1 UNK         0.0000 
     91 H91        -3.2750   -0.4657   -3.0148 H         1 UNK         0.0000 
@<TRIPOS>BOND
     1    1    2 nc   
     2    1   15 nc   
     3    1   17 nc   
     4    1   29 nc   
     5    1   31 nc   
     6    1   44 nc   
     7    2    3 1    
     8    3   43 am   BACKBONE|DICT|INTERRES
     9    3    4 1    
    10    4   45 1    
    11    4    5 1    
    12    4   46 1    
    13    5   47 1    
    14    5    6 1    
    15    5   48 1    
    16    6    7 1    
    17    6   49 1    
    18    6   50 1    
    19    7    8 1    
    20    7   51 1    
    21    7   52 1    
    22    8   53 1    
    23    8    9 1    
    24    8   54 1    
    25    9   10 am   BACKBONE|DICT|INTERRES
    26    9   55 1    
    27   10   11 2    
    28   10   12 1    
    29   12   13 1    
    30   12   57 1    
    31   12   56 1    
    32   13   59 1    
    33   13   14 1    
    34   13   58 1    
    35   14   15 2    
    36   14   16 am   BACKBONE|DICT|INTERRES
    37   16   18 1    
    38   16   17 1    
    39   18   60 1    
    40   18   61 1    
    41   18   19 1    
    42   19   20 1    
    43   19   62 1    
    44   19   63 1    
    45   20   64 1    
    46   20   65 1    
    47   20   21 1    
    48   21   67 1    
    49   21   66 1    
    50   21   22 1    
    51   22   69 1    
    52   22   23 1    
    53   22   68 1    
    54   23   70 1    
    55   23   24 am   BACKBONE|DICT|INTERRES
    56   24   25 2    
    57   24   26 1    
    58   26   72 1    
    59   26   27 1    
    60   26   71 1    
    61   27   73 1    
    62   27   28 1    
    63   27   74 1    
    64   28   29 2    
    65   28   30 am   BACKBONE|DICT|INTERRES
    66   30   31 1    
    67   30   32 1    
    68   32   76 1    
    69   32   33 1    
    70   32   75 1    
    71   33   78 1    
    72   33   34 1    
    73   33   77 1    
    74   34   80 1    
    75   34   35 1    
    76   34   79 1    
    77   35   36 1    
    78   35   81 1    
    79   35   82 1    
    80   36   84 1    
    81   36   83 1    
    82   36   37 1    
    83   37   86 1    
    84   37   38 1    
    85   37   85 1    
    86   38   39 am   BACKBONE|DICT|INTERRES
    87   38   87 1    
    88   39   40 2    
    89   39   41 1    
    90   41   42 1    
    91   41   88 1    
    92   41   89 1    
    93   42   91 1    
    94   42   43 1    
    95   42   90 1    
    96   43   44 2    
@<TRIPOS>SUBSTRUCTURE
     1 UNK         1 GROUP             0       ****    0 ROOT    
@<TRIPOS>MOLECULE
111_c1
94   99    1
SMALL
USER_CHARGES


@<TRIPOS>ATOM
      1 Fe1        -0.0934   -0.7490   -0.6281 Fe        1 UNK         0.0000 
      2 O2          1.9953   -0.8817    0.7488 O.co2     1 UNK         0.0000 
      3 N3          1.6434   -0.2182    1.8718 N.am      1 UNK         0.0000 
      4 C4          2.6632   -0.4123    2.9300 C.3       1 UNK         0.0000 
      5 C5          2.9313   -1.9018    3.2621 C.3       1 UNK         0.0000 
      6 C6          1.6444   -2.7395    3.4303 C.3       1 UNK         0.0000 
      7 C7          1.8834   -4.1169    4.0561 C.3       1 UNK         0.0000 
      8 C8          0.5832   -4.9370    4.2147 C.3       1 UNK         0.0000 
      9 C9          0.4159   -6.1340    3.2540 C.3       1 UNK         0.0000 
     10 N10         0.1230   -5.8489    1.8419 N.am      1 UNK         0.0000 
     11 C11        -1.0542   -5.4083    1.3754 C.2       1 UNK         0.0000 
     12 O12        -1.9228   -4.9369    2.1005 O.2       1 UNK         0.0000 
     13 C13        -1.2971   -5.6000   -0.1320 C.3       1 UNK         0.0000 
     14 C14        -2.4219   -4.7632   -0.8030 C.3       1 UNK         0.0000 
     15 C15        -2.0394   -3.2855   -1.0463 C.2       1 UNK         0.0000 
     16 O16        -1.7234   -2.6212   -0.0484 O.co2     1 UNK         0.0000 
     17 N17        -1.9536   -2.7267   -2.3020 N.am      1 UNK         0.0000 
     18 O18        -1.5224   -1.4864   -2.5633 O.co2     1 UNK         0.0000 
     19 C19        -2.2865   -3.4139   -3.5683 C.3       1 UNK         0.0000 
     20 C20        -1.0123   -3.9293   -4.2884 C.3       1 UNK         0.0000 
     21 C21        -0.9776   -3.6904   -5.8159 C.3       1 UNK         0.0000 
     22 C22         0.1920   -2.8197   -6.3456 C.3       1 UNK         0.0000 
     23 C23         0.1799   -1.3190   -5.9565 C.3       1 UNK         0.0000 
     24 N24         0.9900   -1.0589   -4.7686 N.am      1 UNK         0.0000 
     25 C25         1.1277    0.0729   -4.0721 C.2       1 UNK         0.0000 
     26 O26         1.5430   -0.0339   -2.9178 O.co2     1 UNK         0.0000 
     27 C27         0.7991    1.4674   -4.6695 C.3       1 UNK         0.0000 
     28 C28        -0.3429    2.3512   -4.0555 C.3       1 UNK         0.0000 
     29 C29        -0.5125    2.4079   -2.5307 C.2       1 UNK         0.0000 
     30 O30        -0.6118    1.3807   -1.8726 O.co2     1 UNK         0.0000 
     31 N31        -0.6040    3.5240   -1.8177 N.am      1 UNK         0.0000 
     32 C32        -0.5514    4.9462   -2.1030 C.3       1 UNK         0.0000 
     33 C33        -0.5293    5.5885   -0.7049 C.3       1 UNK         0.0000 
     34 C34        -0.5988    7.1123   -0.5698 C.3       1 UNK         0.0000 
     35 C35        -0.9395    7.5444    0.8832 C.3       1 UNK         0.0000 
     36 C36         0.1961    7.5033    1.9391 C.3       1 UNK         0.0000 
     37 C37         0.9204    6.1717    2.2462 C.3       1 UNK         0.0000 
     38 N38         0.0461    5.0460    2.6158 N.am      1 UNK         0.0000 
     39 C39         0.3133    3.7572    2.3415 C.2       1 UNK         0.0000 
     40 O40         1.2077    3.4202    1.5699 O.2       1 UNK         0.0000 
     41 C41        -0.5612    2.6790    3.0070 C.3       1 UNK         0.0000 
     42 C42         0.1600    1.3256    3.3122 C.3       1 UNK         0.0000 
     43 C43         0.4669    0.4679    2.0664 C.2       1 UNK         0.0000 
     44 O44        -0.4304    0.4312    1.2004 O.co2     1 UNK         0.0000 
     45 H45         2.4442    0.0809    3.8792 H         1 UNK         0.0000 
     46 H46         3.5929    0.0469    2.5852 H         1 UNK         0.0000 
     47 H47         3.5223   -2.3497    2.4619 H         1 UNK         0.0000 
     48 H48         3.5593   -1.9573    4.1488 H         1 UNK         0.0000 
     49 H49         1.1672   -2.8807    2.4595 H         1 UNK         0.0000 
     50 H50         0.9320   -2.1915    4.0491 H         1 UNK         0.0000 
     51 H51         2.3295   -3.9486    5.0383 H         1 UNK         0.0000 
     52 H52         2.6292   -4.6767    3.4886 H         1 UNK         0.0000 
     53 H53        -0.3014   -4.2971    4.1980 H         1 UNK         0.0000 
     54 H54         0.5901   -5.3583    5.2192 H         1 UNK         0.0000 
     55 H55        -0.3340   -6.8245    3.6475 H         1 UNK         0.0000 
     56 H56         1.3496   -6.6998    3.2626 H         1 UNK         0.0000 
     57 H57         0.8119   -6.1548    1.1740 H         1 UNK         0.0000 
     58 H58        -1.6295   -6.6371   -0.1778 H         1 UNK         0.0000 
     59 H59        -0.3798   -5.5917   -0.7170 H         1 UNK         0.0000 
     60 H60        -2.6144   -5.2640   -1.7467 H         1 UNK         0.0000 
     61 H61        -3.3631   -4.8470   -0.2601 H         1 UNK         0.0000 
     62 H62        -2.8050   -2.6873   -4.2066 H         1 UNK         0.0000 
     63 H63        -3.0250   -4.2124   -3.4736 H         1 UNK         0.0000 
     64 H64        -0.1154   -3.5066   -3.8388 H         1 UNK         0.0000 
     65 H65        -0.9402   -4.9966   -4.0816 H         1 UNK         0.0000 
     66 H66        -1.9247   -3.2741   -6.1620 H         1 UNK         0.0000 
     67 H67        -0.9103   -4.6642   -6.3069 H         1 UNK         0.0000 
     68 H68         1.1425   -3.2769   -6.0653 H         1 UNK         0.0000 
     69 H69         0.1653   -2.8954   -7.4339 H         1 UNK         0.0000 
     70 H70        -0.8499   -0.9817   -5.8189 H         1 UNK         0.0000 
     71 H71         0.5796   -0.7379   -6.7866 H         1 UNK         0.0000 
     72 H72         1.3340   -1.8821   -4.3043 H         1 UNK         0.0000 
     73 H73         0.6209    1.3932   -5.7453 H         1 UNK         0.0000 
     74 H74         1.7201    2.0497   -4.6242 H         1 UNK         0.0000 
     75 H75        -1.2861    1.9901   -4.4653 H         1 UNK         0.0000 
     76 H76        -0.2649    3.3605   -4.4554 H         1 UNK         0.0000 
     77 H77        -0.6914    3.3481   -0.8312 H         1 UNK         0.0000 
     78 H78        -1.4248    5.2856   -2.6633 H         1 UNK         0.0000 
     79 H79         0.3285    5.2432   -2.6762 H         1 UNK         0.0000 
     80 H80        -1.3581    5.1824   -0.1238 H         1 UNK         0.0000 
     81 H81         0.3855    5.2584   -0.2260 H         1 UNK         0.0000 
     82 H82        -1.3826    7.4895   -1.2285 H         1 UNK         0.0000 
     83 H83         0.3316    7.5776   -0.8996 H         1 UNK         0.0000 
     84 H84        -1.7983    6.9781    1.2493 H         1 UNK         0.0000 
     85 H85        -1.2892    8.5801    0.8448 H         1 UNK         0.0000 
     86 H86        -0.2076    7.8921    2.8758 H         1 UNK         0.0000 
     87 H87         0.9591    8.2249    1.6451 H         1 UNK         0.0000 
     88 H88         1.5938    6.3277    3.0917 H         1 UNK         0.0000 
     89 H89         1.5675    5.9170    1.4043 H         1 UNK         0.0000 
     90 H90        -0.7443    5.2708    3.1992 H         1 UNK         0.0000 
     91 H91        -1.4724    2.5087    2.4423 H         1 UNK         0.0000 
     92 H92        -0.8993    3.0856    3.9581 H         1 UNK         0.0000 
     93 H93         0.9856    1.4960    3.9999 H         1 UNK         0.0000 
     94 H94        -0.5446    0.7240    3.8911 H         1 UNK         0.0000 
@<TRIPOS>BOND
     1    1    2 nc   
     2    1   16 nc   
     3    1   18 nc   
     4    1   26 nc   
     5    1   30 nc   
     6    1   44 nc   
     7    2    3 1    
     8    3   43 am   BACKBONE|DICT|INTERRES
     9    3    4 1    
    10    4    5 1    
    11    4   45 1    
    12    4   46 1    
    13    5    6 1    
    14    5   48 1    
    15    5   47 1    
    16    6   50 1    
    17    6    7 1    
    18    6   49 1    
    19    7    8 1    
    20    7   51 1    
    21    7   52 1    
    22    8   53 1    
    23    8   54 1    
    24    8    9 1    
    25    9   56 1    
    26    9   55 1    
    27    9   10 1    
    28   10   11 am   BACKBONE|DICT|INTERRES
    29   10   57 1    
    30   11   12 2    
    31   11   13 1    
    32   13   14 1    
    33   13   58 1    
    34   13   59 1    
    35   14   61 1    
    36   14   15 1    
    37   14   60 1    
    38   15   16 2    
    39   15   17 am   BACKBONE|DICT|INTERRES
    40   17   18 1    
    41   17   19 1    
    42   19   20 1    
    43   19   62 1    
    44   19   63 1    
    45   20   65 1    
    46   20   64 1    
    47   20   21 1    
    48   21   22 1    
    49   21   66 1    
    50   21   67 1    
    51   22   68 1    
    52   22   23 1    
    53   22   69 1    
    54   23   24 1    
    55   23   70 1    
    56   23   71 1    
    57   24   72 1    
    58   24   25 am   BACKBONE|DICT|INTERRES
    59   25   26 2    
    60   25   27 1    
    61   27   74 1    
    62   27   28 1    
    63   27   73 1    
    64   28   29 1    
    65   28   75 1    
    66   28   76 1    
    67   29   31 am   BACKBONE|DICT|INTERRES
    68   29   30 2    
    69   31   77 1    
    70   31   32 1    
    71   32   33 1    
    72   32   78 1    
    73   32   79 1    
    74   33   34 1    
    75   33   81 1    
    76   33   80 1    
    77   34   35 1    
    78   34   82 1    
    79   34   83 1    
    80   35   84 1    
    81   35   36 1    
    82   35   85 1    
    83   36   37 1    
    84   36   86 1    
    85   36   87 1    
    86   37   38 1    
    87   37   88 1    
    88   37   89 1    
    89   38   39 am   BACKBONE|DICT|INTERRES
    90   38   90 1    
    91   39   40 2    
    92   39   41 1    
    93   41   42 1    
    94   41   92 1    
    95   41   91 1    
    96   42   94 1    
    97   42   93 1    
    98   42   43 1    
    99   43   44 2    
@<TRIPOS>SUBSTRUCTURE
     1 UNK         1 GROUP             0       ****    0 ROOT    
@<TRIPOS>MOLECULE
112_c1
49   56    1
SMALL
USER_CHARGES


@<TRIPOS>ATOM
      1 Fe1        -0.0002   -0.0698    0.0694 Fe        1 UNK         0.0000 
      2 O2          0.7603    2.1460   -0.1886 O.co2     1 UNK         0.0000 
      3 C3          1.9826    2.4104   -0.3241 C.2       1 UNK         0.0000 
      4 O4          2.4535    3.5515   -0.5298 O.co2     1 UNK         0.0000 
      5 C5          2.9767    1.1848   -0.1984 C.3       1 UNK         0.0000 
      6 C6          3.7440    1.3868    1.1443 C.3       1 UNK         0.0000 
      7 N7          2.2910   -0.1334   -0.1498 N.pl3     1 UNK         0.0000 
      8 C8          2.8315   -1.0897   -0.8300 C.2       1 UNK         0.0000 
      9 S9          4.2667   -0.5318   -1.7673 S.3       1 UNK         0.0000 
     10 C10         3.8810    1.1920   -1.4442 C.3       1 UNK         0.0000 
     11 C11         2.3793   -2.5444   -0.9166 C.ar      1 UNK         0.0000 
     12 N12         3.3076   -3.4207   -1.4452 N.ar      1 UNK         0.0000 
     13 C13         2.9997   -4.7231   -1.6163 C.ar      1 UNK         0.0000 
     14 C14         1.7643   -5.2625   -1.2688 C.ar      1 UNK         0.0000 
     15 C15         0.8053   -4.3917   -0.7264 C.ar      1 UNK         0.0000 
     16 C16         1.0986   -3.0407   -0.5423 C.ar      1 UNK         0.0000 
     17 O17         0.1455   -2.3418   -0.0757 O.co2     1 UNK         0.0000 
     18 H18         4.2325    2.3662    1.1739 H         1 UNK         0.0000 
     19 H19         4.5128    0.6352    1.2919 H         1 UNK         0.0000 
     20 H20         3.0907    1.3544    2.0167 H         1 UNK         0.0000 
     21 H21         4.7676    1.8162   -1.3013 H         1 UNK         0.0000 
     22 H22         3.3797    1.5578   -2.3484 H         1 UNK         0.0000 
     23 H23         3.8068   -5.2979   -2.0448 H         1 UNK         0.0000 
     24 H24         1.5051   -6.3069   -1.3798 H         1 UNK         0.0000 
     25 H25        -0.1763   -4.7502   -0.4388 H         1 UNK         0.0000 
     26 O26        -0.7575    0.1888   -2.1453 O.co2     1 UNK         0.0000 
     27 C27        -1.9870    0.3253   -2.4143 C.2       1 UNK         0.0000 
     28 O28        -2.4528    0.5298   -3.5492 O.co2     1 UNK         0.0000 
     29 C29        -2.9760    0.1983   -1.1842 C.3       1 UNK         0.0000 
     30 C30        -3.7441   -1.1442   -1.3870 C.3       1 UNK         0.0000 
     31 N31        -2.2913    0.1494    0.1334 N.pl3     1 UNK         0.0000 
     32 C32        -2.8313    0.8294    1.0897 C.2       1 UNK         0.0000 
     33 S33        -4.2664    1.7672    0.5322 S.3       1 UNK         0.0000 
     34 C34        -3.8811    1.4444   -1.1917 C.3       1 UNK         0.0000 
     35 C35        -2.3794    0.9159    2.5446 C.ar      1 UNK         0.0000 
     36 N36        -3.3072    1.4455    3.4209 N.ar      1 UNK         0.0000 
     37 C37        -2.9990    1.6168    4.7234 C.ar      1 UNK         0.0000 
     38 C38        -1.7634    1.2692    5.2625 C.ar      1 UNK         0.0000 
     39 C39        -0.8047    0.7269    4.3914 C.ar      1 UNK         0.0000 
     40 C40        -1.0983    0.5419    3.0407 C.ar      1 UNK         0.0000 
     41 O41        -0.1457    0.0746    2.3419 O.co2     1 UNK         0.0000 
     42 H42        -4.2327   -1.1737   -2.3662 H         1 UNK         0.0000 
     43 H43        -4.5127   -1.2917   -0.6352 H         1 UNK         0.0000 
     44 H44        -3.0907   -2.0165   -1.3545 H         1 UNK         0.0000 
     45 H45        -4.7676    1.3016   -1.8159 H         1 UNK         0.0000 
     46 H46        -3.3796    2.3485   -1.5572 H         1 UNK         0.0000 
     47 H47        -3.8060    2.0452    5.2982 H         1 UNK         0.0000 
     48 H48        -1.5037    1.3811    6.3067 H         1 UNK         0.0000 
     49 H49         0.1769    0.4389    4.7501 H         1 UNK         0.0000 
@<TRIPOS>BOND
     1    1    2 nc   
     2    1    7 nc   
     3    1   17 nc   
     4    1   26 nc   
     5    1   31 nc   
     6    1   41 nc   
     7    2    3 1    
     8    3    5 1    
     9    3    4 2    
    10    5    7 1    
    11    5    6 1    
    12    5   10 1    
    13    6   19 1    
    14    6   20 1    
    15    6   18 1    
    16    7    8 2    
    17    8    9 1    
    18    8   11 1    
    19    9   10 1    
    20   10   21 1    
    21   10   22 1    
    22   11   16 ar   
    23   11   12 ar   
    24   12   13 ar   
    25   13   14 ar   
    26   13   23 1    
    27   14   15 ar   
    28   14   24 1    
    29   15   16 ar   
    30   15   25 1    
    31   16   17 1    
    32   26   27 1    
    33   27   29 1    
    34   27   28 2    
    35   29   30 1    
    36   29   34 1    
    37   29   31 1    
    38   30   44 1    
    39   30   43 1    
    40   30   42 1    
    41   31   32 2    
    42   32   35 1    
    43   32   33 1    
    44   33   34 1    
    45   34   45 1    
    46   34   46 1    
    47   35   40 ar   
    48   35   36 ar   
    49   36   37 ar   
    50   37   38 ar   
    51   37   47 1    
    52   38   48 1    
    53   38   39 ar   
    54   39   49 1    
    55   39   40 ar   
    56   40   41 1    
@<TRIPOS>SUBSTRUCTURE
     1 UNK         1 GROUP             0       ****    0 ROOT    
@<TRIPOS>MOLECULE
117_c1
99   104    1
SMALL
USER_CHARGES


@<TRIPOS>ATOM
      1 Fe1         0.0337   -0.2569    1.3670 Fe        1 UNK         0.0000 
      2 C2         -1.9645    2.9849    2.4343 C.3       1 UNK         0.0000 
      3 C3         -0.8371    1.9911    2.4078 C.2       1 UNK         0.0000 
      4 O4         -1.0361    0.7869    2.3043 O.co2     1 UNK         0.0000 
      5 N5          0.4602    2.2618    2.4389 N.am      1 UNK         0.0000 
      6 O6          1.1778    1.1329    2.3240 O.co2     1 UNK         0.0000 
      7 C7          1.0551    3.5850    2.4693 C.3       1 UNK         0.0000 
      8 C8          0.9789    4.2216    1.0785 C.3       1 UNK         0.0000 
      9 C9          1.4119    5.6914    1.0865 C.3       1 UNK         0.0000 
     10 C10         1.5329    6.2908   -0.3346 C.3       1 UNK         0.0000 
     11 H11         1.7560    7.3746   -0.2154 H         1 UNK         0.0000 
     12 N12         2.6646    5.6937   -1.0179 N.am      1 UNK         0.0000 
     13 C13         2.6022    5.0790   -2.2248 C.2       1 UNK         0.0000 
     14 O14         3.6284    4.6363   -2.7183 O.2       1 UNK         0.0000 
     15 C15         0.2404    6.1731   -1.1150 C.2       1 UNK         0.0000 
     16 O16        -0.7732    6.6718   -0.6482 O.2       1 UNK         0.0000 
     17 N17         0.1732    5.5501   -2.3238 N.am      1 UNK         0.0000 
     18 C18         1.3107    4.9485   -3.0008 C.3       1 UNK         0.0000 
     19 H19         1.4577    5.4932   -3.9584 H         1 UNK         0.0000 
     20 C20         1.0215    3.4722   -3.3667 C.3       1 UNK         0.0000 
     21 C21         0.7221    2.5700   -2.1613 C.3       1 UNK         0.0000 
     22 C22         0.5306    1.1081   -2.5821 C.3       1 UNK         0.0000 
     23 N23         0.0716    0.3190   -1.4448 N.am      1 UNK         0.0000 
     24 O24         0.6776    0.3080   -0.2517 O.co2     1 UNK         0.0000 
     25 C25        -1.0558   -0.3540   -1.3512 C.2       1 UNK         0.0000 
     26 O26        -1.2965   -0.6152   -0.2008 O.co2     1 UNK         0.0000 
     27 C27        -2.0101   -0.7340   -2.4192 C.2       1 UNK         0.0000 
     28 C28        -1.7059   -1.2437   -3.6385 C.2       1 UNK         0.0000 
     29 C29        -2.8421   -1.5709   -4.5823 C.3       1 UNK         0.0000 
     30 C30        -0.2876   -1.5434   -4.1083 C.3       1 UNK         0.0000 
     31 C31        -0.0433   -3.0222   -4.4206 C.3       1 UNK         0.0000 
     32 O32        -0.0515   -3.7922   -3.2658 O.3       1 UNK         0.0000 
     33 C33         0.1349   -5.1401   -3.2930 C.2       1 UNK         0.0000 
     34 O34         0.0846   -5.7194   -4.3687 O.2       1 UNK         0.0000 
     35 C35         0.4511   -5.9180   -2.0048 C.3       1 UNK         0.0000 
     36 H36         1.3812   -5.4838   -1.5824 H         1 UNK         0.0000 
     37 N37         0.7381   -7.3770   -2.2199 N.4       1 UNK         0.0000 
     38 H38         0.9647   -7.7795   -1.2785 H         1 UNK         0.0000 
     39 C39         1.9556   -7.6052   -3.0259 C.3       1 UNK         0.0000 
     40 C40        -0.3925   -8.1735   -2.7440 C.3       1 UNK         0.0000 
     41 C41        -0.6608   -5.7452   -0.9268 C.3       1 UNK         0.0000 
     42 C42        -0.7264   -4.3846   -0.2015 C.3       1 UNK         0.0000 
     43 C43         0.5112   -4.1123    0.6897 C.3       1 UNK         0.0000 
     44 N44         0.3093   -2.9199    1.4899 N.am      1 UNK         0.0000 
     45 O45         0.9488   -1.7428    1.4531 O.co2     1 UNK         0.0000 
     46 C46        -0.4785   -2.6135    2.4350 C.2       1 UNK         0.0000 
     47 O47        -0.2693   -1.4113    2.5733 O.co2     1 UNK         0.0000 
     48 C48        -1.3948   -3.5090    3.1826 C.2       1 UNK         0.0000 
     49 C49        -2.0572   -3.2273    4.3327 C.2       1 UNK         0.0000 
     50 C50        -1.9944   -1.8812    5.0345 C.3       1 UNK         0.0000 
     51 C51        -2.8637   -4.3728    4.9357 C.3       1 UNK         0.0000 
     52 C52        -3.4841   -4.1129    6.3136 C.3       1 UNK         0.0000 
     53 O53        -2.4732   -3.9135    7.2638 O.3       1 UNK         0.0000 
     54 H54        -2.5591    2.8800    1.5018 H         1 UNK         0.0000 
     55 H55        -1.6110    4.0320    2.5023 H         1 UNK         0.0000 
     56 H56        -2.6198    2.7774    3.3046 H         1 UNK         0.0000 
     57 H57         0.5578    4.1963    3.2523 H         1 UNK         0.0000 
     58 H58         2.1312    3.5087    2.7389 H         1 UNK         0.0000 
     59 H59        -0.0541    4.1645    0.6760 H         1 UNK         0.0000 
     60 H60         1.6537    3.6383    0.4276 H         1 UNK         0.0000 
     61 H61         0.6685    6.2707    1.6779 H         1 UNK         0.0000 
     62 H62         2.3977    5.7946    1.5915 H         1 UNK         0.0000 
     63 H63         3.5857    5.7638   -0.5570 H         1 UNK         0.0000 
     64 H64        -0.7366    5.5225   -2.8085 H         1 UNK         0.0000 
     65 H65         1.8941    3.0647   -3.9239 H         1 UNK         0.0000 
     66 H66         0.1452    3.4414   -4.0518 H         1 UNK         0.0000 
     67 H67         1.5708    2.5986   -1.4535 H         1 UNK         0.0000 
     68 H68        -0.2001    2.9391   -1.6617 H         1 UNK         0.0000 
     69 H69        -0.2213    1.0752   -3.3981 H         1 UNK         0.0000 
     70 H70         1.4999    0.7161   -2.9594 H         1 UNK         0.0000 
     71 H71        -3.0582   -0.6718   -2.1386 H         1 UNK         0.0000 
     72 H72        -2.7086   -1.0045   -5.5276 H         1 UNK         0.0000 
     73 H73        -3.8355   -1.3022   -4.1633 H         1 UNK         0.0000 
     74 H74        -2.8664   -2.6554   -4.8076 H         1 UNK         0.0000 
     75 H75         0.4805   -1.2859   -3.3628 H         1 UNK         0.0000 
     76 H76        -0.1054   -0.9474   -5.0281 H         1 UNK         0.0000 
     77 H77         0.9643   -3.1092   -4.8851 H         1 UNK         0.0000 
     78 H78        -0.7829   -3.3962   -5.1592 H         1 UNK         0.0000 
     79 H79         1.8284   -7.3025   -4.0837 H         1 UNK         0.0000 
     80 H80         2.2249   -8.6847   -3.0216 H         1 UNK         0.0000 
     81 H81         2.8194   -7.0517   -2.5971 H         1 UNK         0.0000 
     82 H82        -0.6913   -7.8696   -3.7655 H         1 UNK         0.0000 
     83 H83        -0.1151   -9.2500   -2.7875 H         1 UNK         0.0000 
     84 H84        -1.2753   -8.1077   -2.0758 H         1 UNK         0.0000 
     85 H85        -1.6466   -5.9592   -1.3935 H         1 UNK         0.0000 
     86 H86        -0.5082   -6.4951   -0.1201 H         1 UNK         0.0000 
     87 H87        -0.8861   -3.5510   -0.9161 H         1 UNK         0.0000 
     88 H88        -1.6215   -4.4274    0.4536 H         1 UNK         0.0000 
     89 H89         1.3959   -3.9599    0.0389 H         1 UNK         0.0000 
     90 H90         0.7076   -4.9687    1.3691 H         1 UNK         0.0000 
     91 H91        -1.4020   -1.1099    4.5229 H         1 UNK         0.0000 
     92 H92        -3.0195   -1.4712    5.1400 H         1 UNK         0.0000 
     93 H93        -1.5404   -1.9964    6.0382 H         1 UNK         0.0000 
     94 H94        -3.6747   -4.6379    4.2229 H         1 UNK         0.0000 
     95 H95        -2.1973   -5.2577    5.0456 H         1 UNK         0.0000 
     96 H96        -4.1632   -3.2341    6.2704 H         1 UNK         0.0000 
     97 H97        -4.0702   -5.0151    6.5980 H         1 UNK         0.0000 
     98 H98        -2.9305   -3.7798    8.1337 H         1 UNK         0.0000 
     99 H99        -1.5929   -4.5058    2.8172 H         1 UNK         0.0000 
@<TRIPOS>BOND
     1    1    4 nc   
     2    1    6 nc   
     3    1   24 nc   
     4    1   26 nc   
     5    1   45 nc   
     6    1   47 nc   
     7    2   55 1    
     8    2   56 1    
     9    2    3 1    
    10    2   54 1    
    11    3    5 am   BACKBONE|DICT|INTERRES
    12    3    4 2    
    13    5    7 1    
    14    5    6 1    
    15    7   58 1    
    16    7   57 1    
    17    7    8 1    
    18    8    9 1    
    19    8   59 1    
    20    8   60 1    
    21    9   62 1    
    22    9   61 1    
    23    9   10 1    
    24   10   11 1    
    25   10   12 1    
    26   10   15 1    
    27   12   63 1    
    28   12   13 am   BACKBONE|DICT|INTERRES
    29   13   14 2    
    30   13   18 1    
    31   15   16 2    
    32   15   17 am   BACKBONE|DICT|INTERRES
    33   17   18 1    
    34   17   64 1    
    35   18   19 1    
    36   18   20 1    
    37   20   21 1    
    38   20   65 1    
    39   20   66 1    
    40   21   68 1    
    41   21   67 1    
    42   21   22 1    
    43   22   23 1    
    44   22   69 1    
    45   22   70 1    
    46   23   25 am   BACKBONE|DICT|INTERRES
    47   23   24 1    
    48   25   27 1    
    49   25   26 2    
    50   27   71 1    
    51   27   28 2    
    52   28   29 1    
    53   28   30 1    
    54   29   73 1    
    55   29   72 1    
    56   29   74 1    
    57   30   75 1    
    58   30   31 1    
    59   30   76 1    
    60   31   32 1    
    61   31   77 1    
    62   31   78 1    
    63   32   33 1    
    64   33   35 1    
    65   33   34 2    
    66   35   36 1    
    67   35   41 1    
    68   35   37 1    
    69   37   38 1    
    70   37   39 1    
    71   37   40 1    
    72   39   80 1    
    73   39   81 1    
    74   39   79 1    
    75   40   84 1    
    76   40   82 1    
    77   40   83 1    
    78   41   42 1    
    79   41   86 1    
    80   41   85 1    
    81   42   88 1    
    82   42   43 1    
    83   42   87 1    
    84   43   90 1    
    85   43   44 1    
    86   43   89 1    
    87   44   46 am   BACKBONE|DICT|INTERRES
    88   44   45 1    
    89   46   47 2    
    90   46   48 1    
    91   48   49 2    
    92   48   99 1    
    93   49   51 1    
    94   49   50 1    
    95   50   92 1    
    96   50   93 1    
    97   50   91 1    
    98   51   95 1    
    99   51   52 1    
   100   51   94 1    
   101   52   97 1    
   102   52   53 1    
   103   52   96 1    
   104   53   98 1    
@<TRIPOS>SUBSTRUCTURE
     1 UNK         1 GROUP             0       ****    0 ROOT    
@<TRIPOS>MOLECULE
118_c1
99   104    1
SMALL
USER_CHARGES


@<TRIPOS>ATOM
      1 Fe1         0.4905   -0.3333    0.9797 Fe        1 UNK         0.0000 
      2 C2         -1.5506    5.6542    5.6168 C.3       1 UNK         0.0000 
      3 O3         -0.3517    6.1506    6.1763 O.3       1 UNK         0.0000 
      4 C4         -1.5716    4.1176    5.6907 C.3       1 UNK         0.0000 
      5 C5         -0.5363    3.4027    4.8162 C.2       1 UNK         0.0000 
      6 C6          0.9242    3.5979    5.2198 C.3       1 UNK         0.0000 
      7 C7         -0.9735    2.6433    3.7849 C.2       1 UNK         0.0000 
      8 C8         -0.2168    1.8690    2.8273 C.2       1 UNK         0.0000 
      9 O9         -0.6726    0.8158    2.4114 O.co2     1 UNK         0.0000 
     10 N10         1.0088    2.1723    2.3245 N.am      1 UNK         0.0000 
     11 O11         1.7082    1.2288    1.6815 O.co2     1 UNK         0.0000 
     12 C12         1.4169    3.5593    2.0582 C.3       1 UNK         0.0000 
     13 C13         1.3442    3.9624    0.5633 C.3       1 UNK         0.0000 
     14 C14         1.8086    5.4202    0.3411 C.3       1 UNK         0.0000 
     15 C15         1.7574    5.9142   -1.1249 C.3       1 UNK         0.0000 
     16 H16         2.1076    6.9501   -1.0841 H         1 UNK         0.0000 
     17 C17         0.2647    6.0414   -1.5873 C.2       1 UNK         0.0000 
     18 O18        -0.6247    6.6207   -0.9785 O.2       1 UNK         0.0000 
     19 N19        -0.0521    5.4539   -2.7433 N.am      1 UNK         0.0000 
     20 C20         0.8444    4.6529   -3.6023 C.3       1 UNK         0.0000 
     21 H21         0.9249    5.1826   -4.5473 H         1 UNK         0.0000 
     22 C22         2.3451    4.5563   -3.1651 C.2       1 UNK         0.0000 
     23 O23         3.2299    3.9943   -3.7953 O.2       1 UNK         0.0000 
     24 N24         2.6662    5.1662   -2.0213 N.am      1 UNK         0.0000 
     25 C25         0.2825    3.2457   -3.9344 C.3       1 UNK         0.0000 
     26 C26         0.0977    2.3689   -2.6885 C.3       1 UNK         0.0000 
     27 C27        -0.4525    0.9530   -2.9806 C.3       1 UNK         0.0000 
     28 N28        -0.4854    0.1556   -1.7485 N.am      1 UNK         0.0000 
     29 O29         0.6724    0.0921   -1.1117 O.co2     1 UNK         0.0000 
     30 C30        -1.5800   -0.3391   -1.1453 C.2       1 UNK         0.0000 
     31 O31        -1.4151   -0.6592    0.0269 O.co2     1 UNK         0.0000 
     32 C32        -2.7714   -0.6787   -1.8798 C.2       1 UNK         0.0000 
     33 C33        -3.1431   -1.9612   -2.1419 C.2       1 UNK         0.0000 
     34 C34        -4.4603   -2.2668   -2.8503 C.3       1 UNK         0.0000 
     35 C35        -2.2833   -3.1891   -1.8010 C.3       1 UNK         0.0000 
     36 C36        -2.8615   -4.1366   -0.7262 C.3       1 UNK         0.0000 
     37 O37        -1.9188   -5.1388   -0.2956 O.3       1 UNK         0.0000 
     38 C38        -1.4695   -6.1170   -1.1356 C.2       1 UNK         0.0000 
     39 O39        -1.8290   -6.2483   -2.3009 O.2       1 UNK         0.0000 
     40 C40        -0.5623   -7.1412   -0.4045 C.3       1 UNK         0.0000 
     41 H41        -1.1231   -7.4488    0.4798 H         1 UNK         0.0000 
     42 N42        -0.5202   -8.3943   -1.2817 N.4       1 UNK         0.0000 
     43 H43        -1.4696   -8.4612   -1.6399 H         1 UNK         0.0000 
     44 C44         0.4014   -8.3254   -2.5313 C.3       1 UNK         0.0000 
     45 C45        -0.1961   -9.6664   -0.4607 C.3       1 UNK         0.0000 
     46 C46         0.8705   -6.6889    0.0425 C.3       1 UNK         0.0000 
     47 C47         0.9901   -5.5230    1.0314 C.3       1 UNK         0.0000 
     48 C48         1.0951   -4.1621    0.3237 C.3       1 UNK         0.0000 
     49 N49         1.1106   -2.9853    1.1962 N.am      1 UNK         0.0000 
     50 O50         1.6429   -1.8897    0.6551 O.co2     1 UNK         0.0000 
     51 C51         0.1700   -2.6828    2.1356 C.2       1 UNK         0.0000 
     52 O52         0.0300   -1.4661    2.1954 O.co2     1 UNK         0.0000 
     53 C53        -0.8415   -3.5819    2.8140 C.3       1 UNK         0.0000 
     54 H54        -2.3975    6.0779    6.1643 H         1 UNK         0.0000 
     55 H55        -1.6423    6.0078    4.5860 H         1 UNK         0.0000 
     56 H56        -0.3825    6.0062    7.1317 H         1 UNK         0.0000 
     57 H57        -2.5730    3.8065    5.3959 H         1 UNK         0.0000 
     58 H58        -1.4650    3.7815    6.7216 H         1 UNK         0.0000 
     59 H59         1.0698    3.4109    6.2825 H         1 UNK         0.0000 
     60 H60         1.2331    4.6171    4.9958 H         1 UNK         0.0000 
     61 H61         1.6128    2.9471    4.6852 H         1 UNK         0.0000 
     62 H62        -2.0363    2.5193    3.6218 H         1 UNK         0.0000 
     63 H63         0.8319    4.2946    2.6286 H         1 UNK         0.0000 
     64 H64         2.4407    3.6652    2.4282 H         1 UNK         0.0000 
     65 H65         1.9696    3.2910   -0.0336 H         1 UNK         0.0000 
     66 H66         0.3178    3.8393    0.2079 H         1 UNK         0.0000 
     67 H67         1.2402    6.0941    0.9850 H         1 UNK         0.0000 
     68 H68         2.8386    5.5075    0.6914 H         1 UNK         0.0000 
     69 H69        -1.0384    5.5227   -2.9563 H         1 UNK         0.0000 
     70 H70         3.6289    4.9958   -1.7588 H         1 UNK         0.0000 
     71 H71         0.9180    2.7346   -4.6610 H         1 UNK         0.0000 
     72 H72        -0.6848    3.3523   -4.4254 H         1 UNK         0.0000 
     73 H73         1.0752    2.2852   -2.2052 H         1 UNK         0.0000 
     74 H74        -0.5570    2.8617   -1.9658 H         1 UNK         0.0000 
     75 H75         0.2075    0.4323   -3.6803 H         1 UNK         0.0000 
     76 H76        -1.4206    1.0096   -3.4940 H         1 UNK         0.0000 
     77 H77        -3.3422    0.1749   -2.1983 H         1 UNK         0.0000 
     78 H78        -5.0187   -1.3629   -3.0941 H         1 UNK         0.0000 
     79 H79        -4.2987   -2.8116   -3.7792 H         1 UNK         0.0000 
     80 H80        -5.1022   -2.8670   -2.2085 H         1 UNK         0.0000 
     81 H81        -2.1142   -3.7173   -2.7388 H         1 UNK         0.0000 
     82 H82        -1.2886   -2.8790   -1.4758 H         1 UNK         0.0000 
     83 H83        -3.1286   -3.5507    0.1553 H         1 UNK         0.0000 
     84 H84        -3.7705   -4.6198   -1.0816 H         1 UNK         0.0000 
     85 H85         1.4426   -8.3069   -2.1939 H         1 UNK         0.0000 
     86 H86         0.2163   -9.2170   -3.1346 H         1 UNK         0.0000 
     87 H87         0.1829   -7.4305   -3.1183 H         1 UNK         0.0000 
     88 H88        -0.8631   -9.7224    0.4012 H         1 UNK         0.0000 
     89 H89        -0.3328  -10.5334   -1.1071 H         1 UNK         0.0000 
     90 H90         0.8463   -9.6072   -0.1310 H         1 UNK         0.0000 
     91 H91         1.3227   -7.5349    0.5626 H         1 UNK         0.0000 
     92 H92         1.5186   -6.5069   -0.8172 H         1 UNK         0.0000 
     93 H93         0.1632   -5.5792    1.7313 H         1 UNK         0.0000 
     94 H94         1.9027   -5.6514    1.6230 H         1 UNK         0.0000 
     95 H95         1.9850   -4.1710   -0.3191 H         1 UNK         0.0000 
     96 H96         0.2869   -4.0090   -0.3857 H         1 UNK         0.0000 
     97 H97        -1.5034   -2.9402    3.3913 H         1 UNK         0.0000 
     98 H98        -1.4683   -4.0476    2.0631 H         1 UNK         0.0000 
     99 H99        -0.4277   -4.3153    3.4967 H         1 UNK         0.0000 
@<TRIPOS>BOND
     1    1    9 nc   
     2    1   11 nc   
     3    1   29 nc   
     4    1   31 nc   
     5    1   50 nc   
     6    1   52 nc   
     7    2    4 1    
     8    2    3 1    
     9    2   54 1    
    10    2   55 1    
    11    3   56 1    
    12    4   58 1    
    13    4    5 1    
    14    4   57 1    
    15    5    6 1    
    16    5    7 2    
    17    6   59 1    
    18    6   60 1    
    19    6   61 1    
    20    7    8 1    
    21    7   62 1    
    22    8    9 2    
    23    8   10 am   BACKBONE|DICT|INTERRES
    24   10   11 1    
    25   10   12 1    
    26   12   64 1    
    27   12   63 1    
    28   12   13 1    
    29   13   14 1    
    30   13   65 1    
    31   13   66 1    
    32   14   68 1    
    33   14   67 1    
    34   14   15 1    
    35   15   16 1    
    36   15   17 1    
    37   15   24 1    
    38   17   18 2    
    39   17   19 am   BACKBONE|DICT|INTERRES
    40   19   20 1    
    41   19   69 1    
    42   20   21 1    
    43   20   22 1    
    44   20   25 1    
    45   22   24 am   BACKBONE|DICT|INTERRES
    46   22   23 2    
    47   24   70 1    
    48   25   26 1    
    49   25   71 1    
    50   25   72 1    
    51   26   73 1    
    52   26   74 1    
    53   26   27 1    
    54   27   28 1    
    55   27   75 1    
    56   27   76 1    
    57   28   30 am   BACKBONE|DICT|INTERRES
    58   28   29 1    
    59   30   32 1    
    60   30   31 2    
    61   32   33 2    
    62   32   77 1    
    63   33   35 1    
    64   33   34 1    
    65   34   80 1    
    66   34   78 1    
    67   34   79 1    
    68   35   82 1    
    69   35   36 1    
    70   35   81 1    
    71   36   37 1    
    72   36   83 1    
    73   36   84 1    
    74   37   38 1    
    75   38   40 1    
    76   38   39 2    
    77   40   46 1    
    78   40   41 1    
    79   40   42 1    
    80   42   45 1    
    81   42   43 1    
    82   42   44 1    
    83   44   85 1    
    84   44   86 1    
    85   44   87 1    
    86   45   90 1    
    87   45   88 1    
    88   45   89 1    
    89   46   91 1    
    90   46   47 1    
    91   46   92 1    
    92   47   94 1    
    93   47   93 1    
    94   47   48 1    
    95   48   49 1    
    96   48   95 1    
    97   48   96 1    
    98   49   51 am   BACKBONE|DICT|INTERRES
    99   49   50 1    
   100   51   53 1    
   101   51   52 2    
   102   53   97 1    
   103   53   99 1    
   104   53   98 1    
@<TRIPOS>SUBSTRUCTURE
     1 UNK         1 GROUP             0       ****    0 ROOT    
@<TRIPOS>MOLECULE
119_c1
97   103    1
SMALL
USER_CHARGES


@<TRIPOS>ATOM
      1 Fe1        -0.2954   -0.0527   -2.6783 Fe        1 UNK         0.0000 
      2 C2         -1.0772   -4.9198   -3.5385 C.ar      1 UNK         0.0000 
      3 C3         -0.2260   -4.7084   -4.6163 C.ar      1 UNK         0.0000 
      4 C4          0.1520   -3.4092   -4.9349 C.ar      1 UNK         0.0000 
      5 C5         -0.3875   -2.3373   -4.2266 C.ar      1 UNK         0.0000 
      6 O6          0.0472   -1.1867   -4.4363 O.co2     1 UNK         0.0000 
      7 C7         -1.3380   -2.5235   -3.2037 C.ar      1 UNK         0.0000 
      8 O8         -1.8830   -1.4717   -2.7056 O.co2     1 UNK         0.0000 
      9 C9         -1.6146   -3.8567   -2.7810 C.ar      1 UNK         0.0000 
     10 C10        -2.3247   -4.2121   -1.4790 C.2       1 UNK         0.0000 
     11 O11        -3.4381   -3.8179   -1.1361 O.2       1 UNK         0.0000 
     12 N12        -1.7409   -5.1975   -0.7797 N.am      1 UNK         0.0000 
     13 C13        -0.3291   -5.1265   -0.3591 C.3       1 UNK         0.0000 
     14 H14         0.2761   -4.9060   -1.2467 H         1 UNK         0.0000 
     15 C15         0.1506   -6.5191    0.1257 C.3       1 UNK         0.0000 
     16 C16        -0.5593   -7.1622    1.3504 C.3       1 UNK         0.0000 
     17 C17         0.1263   -8.5103    1.6995 C.3       1 UNK         0.0000 
     18 N18        -0.5526   -9.2746    2.7661 N.pl3     1 UNK         0.0000 
     19 C19        -0.1623  -10.4736    3.2364 C.cat     1 UNK         0.0000 
     20 N20        -0.8574  -11.0757    4.2032 N.pl3     1 UNK         0.0000 
     21 N21         0.9188  -11.0707    2.7391 N.pl3     1 UNK         0.0000 
     22 H22         1.2652  -11.9692    3.0553 H         1 UNK         0.0000 
     23 H23         1.4634  -10.6247    2.0136 H         1 UNK         0.0000 
     24 C24         0.0136   -3.9599    0.6202 C.2       1 UNK         0.0000 
     25 O25        -0.1846   -4.0937    1.8331 O.2       1 UNK         0.0000 
     26 N26         0.5778   -2.8627    0.0735 N.am      1 UNK         0.0000 
     27 C27         0.9058   -1.5565    0.7097 C.3       1 UNK         0.0000 
     28 H28         1.9539   -1.5741    1.0283 H         1 UNK         0.0000 
     29 C29         0.8495   -0.4130   -0.3668 C.2       1 UNK         0.0000 
     30 O30        -0.3017   -0.1656   -0.6703 O.co2     1 UNK         0.0000 
     31 O31         1.3242   -0.6155   -1.4899 O.co2     1 UNK         0.0000 
     32 C32        -0.0024   -1.2272    1.9430 C.3       1 UNK         0.0000 
     33 O33        -0.1002    0.1177    2.3940 O.3       1 UNK         0.0000 
     34 C34         0.9068    0.7375    3.0192 C.2       1 UNK         0.0000 
     35 O35         2.0650    0.3095    3.1004 O.2       1 UNK         0.0000 
     36 C36         0.4209    2.0031    3.7212 C.3       1 UNK         0.0000 
     37 H37        -0.3462    1.6719    4.4182 H         1 UNK         0.0000 
     38 C38         1.5703    2.6622    4.5357 C.3       1 UNK         0.0000 
     39 O39         1.1404    3.8131    5.2491 O.3       1 UNK         0.0000 
     40 N40        -0.1479    2.9335    2.7210 N.am      1 UNK         0.0000 
     41 C41        -1.2470    3.6739    2.9225 C.2       1 UNK         0.0000 
     42 O42        -1.9838    3.5518    3.9070 O.2       1 UNK         0.0000 
     43 C43        -1.4662    4.8593    1.9507 C.3       1 UNK         0.0000 
     44 H44        -2.5474    5.0134    1.8932 H         1 UNK         0.0000 
     45 C45        -0.7761    6.1017    2.5793 C.3       1 UNK         0.0000 
     46 C46        -0.9146    7.4228    1.8041 C.3       1 UNK         0.0000 
     47 C47        -0.0453    8.5158    2.4633 C.3       1 UNK         0.0000 
     48 N48         0.0822    9.7121    1.6046 N.pl3     1 UNK         0.0000 
     49 C49        -0.0851   11.0077    1.9406 C.cat     1 UNK         0.0000 
     50 N50         0.1754   11.9621    1.0441 N.pl3     1 UNK         0.0000 
     51 N51        -0.5151   11.3564    3.1499 N.pl3     1 UNK         0.0000 
     52 H52        -0.7360   10.6564    3.8450 H         1 UNK         0.0000 
     53 H53        -0.6799   12.3152    3.4321 H         1 UNK         0.0000 
     54 N54        -0.9127    4.6298    0.6115 N.am      1 UNK         0.0000 
     55 C55        -1.5260    3.9731   -0.3868 C.2       1 UNK         0.0000 
     56 O56        -2.6845    3.5830   -0.2848 O.2       1 UNK         0.0000 
     57 C57        -0.6103    3.8010   -1.6040 C.ar      1 UNK         0.0000 
     58 C58        -0.5849    2.6267   -2.4063 C.ar      1 UNK         0.0000 
     59 O59        -1.4514    1.6865   -2.3697 O.co2     1 UNK         0.0000 
     60 C60         0.5039    2.4356   -3.2805 C.ar      1 UNK         0.0000 
     61 O61         0.6615    1.3190   -3.8210 O.co2     1 UNK         0.0000 
     62 C62         1.4577    3.4141   -3.4865 C.ar      1 UNK         0.0000 
     63 C63         1.3550    4.6213   -2.8128 C.ar      1 UNK         0.0000 
     64 C64         0.3427    4.8000   -1.8741 C.ar      1 UNK         0.0000 
     65 H65        -1.2850   -5.9373   -3.2641 H         1 UNK         0.0000 
     66 H66         0.1952   -5.5402   -5.1666 H         1 UNK         0.0000 
     67 H67         0.8890   -3.2351   -5.7164 H         1 UNK         0.0000 
     68 H68        -2.0689   -6.0640   -1.1538 H         1 UNK         0.0000 
     69 H69         1.2170   -6.4375    0.3538 H         1 UNK         0.0000 
     70 H70         0.0727   -7.2013   -0.7246 H         1 UNK         0.0000 
     71 H71        -0.4657   -6.4933    2.2120 H         1 UNK         0.0000 
     72 H72        -1.6393   -7.2887    1.1949 H         1 UNK         0.0000 
     73 H73         0.2575   -9.1206    0.8015 H         1 UNK         0.0000 
     74 H74         1.1304   -8.2966    2.0813 H         1 UNK         0.0000 
     75 H75        -1.3471   -8.7764    3.1525 H         1 UNK         0.0000 
     76 H76        -1.6833  -10.6598    4.6122 H         1 UNK         0.0000 
     77 H77        -0.5891  -11.9759    4.5748 H         1 UNK         0.0000 
     78 H78         0.6554   -2.8096   -0.9369 H         1 UNK         0.0000 
     79 H79         0.2663   -1.8611    2.7995 H         1 UNK         0.0000 
     80 H80        -1.0278   -1.4830    1.6884 H         1 UNK         0.0000 
     81 H81         1.9676    1.9417    5.2532 H         1 UNK         0.0000 
     82 H82         2.4005    2.9523    3.8884 H         1 UNK         0.0000 
     83 H83         0.4964    3.5444    5.9177 H         1 UNK         0.0000 
     84 H84         0.3757    3.0889    1.8668 H         1 UNK         0.0000 
     85 H85         0.2931    5.8795    2.6920 H         1 UNK         0.0000 
     86 H86        -1.1482    6.2587    3.5969 H         1 UNK         0.0000 
     87 H87        -1.9669    7.7244    1.8376 H         1 UNK         0.0000 
     88 H88        -0.6573    7.3137    0.7445 H         1 UNK         0.0000 
     89 H89         0.9317    8.1424    2.7916 H         1 UNK         0.0000 
     90 H90        -0.5622    8.8216    3.3771 H         1 UNK         0.0000 
     91 H91         0.3890    9.4485    0.6733 H         1 UNK         0.0000 
     92 H92         0.0586   12.9460    1.2461 H         1 UNK         0.0000 
     93 H93         0.5210   11.7412    0.1221 H         1 UNK         0.0000 
     94 H94         0.0513    4.8379    0.4180 H         1 UNK         0.0000 
     95 H95         2.2657    3.2126   -4.1805 H         1 UNK         0.0000 
     96 H96         2.0891    5.3801   -3.0247 H         1 UNK         0.0000 
     97 H97         0.3302    5.7327   -1.3446 H         1 UNK         0.0000 
@<TRIPOS>BOND
     1    1    6 nc   
     2    1    8 nc   
     3    1   30 nc   
     4    1   31 nc   
     5    1   59 nc   
     6    1   61 nc   
     7    2   65 1    
     8    2    9 ar   
     9    2    3 ar   
    10    3    4 ar   
    11    3   66 1    
    12    4    5 ar   
    13    4   67 1    
    14    5    7 ar   
    15    5    6 1    
    16    7    8 1    
    17    7    9 ar   
    18    9   10 1    
    19   10   11 2    
    20   10   12 am   BACKBONE|DICT|INTERRES
    21   12   13 1    
    22   12   68 1    
    23   13   14 1    
    24   13   15 1    
    25   13   24 1    
    26   15   69 1    
    27   15   16 1    
    28   15   70 1    
    29   16   17 1    
    30   16   71 1    
    31   16   72 1    
    32   17   74 1    
    33   17   18 1    
    34   17   73 1    
    35   18   19 ar   
    36   18   75 1    
    37   19   20 ar   
    38   19   21 ar   
    39   20   77 1    
    40   20   76 1    
    41   21   22 1    
    42   21   23 1    
    43   24   25 2    
    44   24   26 am   BACKBONE|DICT|INTERRES
    45   26   27 1    
    46   26   78 1    
    47   27   28 1    
    48   27   32 1    
    49   27   29 1    
    50   29   30 2    
    51   29   31 1    
    52   32   33 1    
    53   32   79 1    
    54   32   80 1    
    55   33   34 1    
    56   34   35 2    
    57   34   36 1    
    58   36   37 1    
    59   36   38 1    
    60   36   40 1    
    61   38   81 1    
    62   38   39 1    
    63   38   82 1    
    64   39   83 1    
    65   40   41 am   BACKBONE|DICT|INTERRES
    66   40   84 1    
    67   41   42 2    
    68   41   43 1    
    69   43   44 1    
    70   43   45 1    
    71   43   54 1    
    72   45   85 1    
    73   45   86 1    
    74   45   46 1    
    75   46   47 1    
    76   46   87 1    
    77   46   88 1    
    78   47   89 1    
    79   47   90 1    
    80   47   48 1    
    81   48   49 ar   
    82   48   91 1    
    83   49   51 ar   
    84   49   50 ar   
    85   50   92 1    
    86   50   93 1    
    87   51   53 1    
    88   51   52 1    
    89   54   55 am   BACKBONE|DICT|INTERRES
    90   54   94 1    
    91   55   56 2    
    92   55   57 1    
    93   57   58 ar   
    94   57   64 ar   
    95   58   59 1    
    96   58   60 ar   
    97   60   61 1    
    98   60   62 ar   
    99   62   63 ar   
   100   62   95 1    
   101   63   64 ar   
   102   63   96 1    
   103   64   97 1    
@<TRIPOS>SUBSTRUCTURE
     1 UNK         1 GROUP             0       ****    0 ROOT    
@<TRIPOS>MOLECULE
119_c2
98   104    1
SMALL
USER_CHARGES


@<TRIPOS>ATOM
      1 Fe1         1.1380   -0.5814   -2.0428 Fe        1 UNK         0.0000 
      2 C2          0.8676    4.3505   -4.2370 C.ar      1 UNK         0.0000 
      3 C3         -0.2540    3.8008   -4.8493 C.ar      1 UNK         0.0000 
      4 C4         -0.6218    2.4918   -4.5601 C.ar      1 UNK         0.0000 
      5 C5          0.1758    1.6935   -3.7379 C.ar      1 UNK         0.0000 
      6 O6         -0.2742    0.5363   -3.4761 O.co2     1 UNK         0.0000 
      7 C7          1.3832    2.2015   -3.1992 C.ar      1 UNK         0.0000 
      8 O8          2.2088    1.4543   -2.5470 O.co2     1 UNK         0.0000 
      9 C9          1.6594    3.5845   -3.3627 C.ar      1 UNK         0.0000 
     10 C10         2.5011    4.3186   -2.3442 C.2       1 UNK         0.0000 
     11 O11         3.7357    4.3652   -2.2851 O.2       1 UNK         0.0000 
     12 N12         1.6830    4.9385   -1.4863 N.am      1 UNK         0.0000 
     13 C13         1.9581    5.2261   -0.0831 C.3       1 UNK         0.0000 
     14 H14         3.0354    5.3084    0.0890 H         1 UNK         0.0000 
     15 C15         1.2157    6.5363    0.3196 C.3       1 UNK         0.0000 
     16 C16         1.6705    7.8478   -0.3297 C.3       1 UNK         0.0000 
     17 C17         0.7860    9.0045    0.1734 C.3       1 UNK         0.0000 
     18 N18         1.1512   10.2986   -0.4340 N.pl3     1 UNK         0.0000 
     19 C19         1.3900   11.4677    0.1815 C.cat     1 UNK         0.0000 
     20 N20         1.6452   12.5511   -0.5548 N.pl3     1 UNK         0.0000 
     21 N21         1.3792   11.5693    1.5145 N.pl3     1 UNK         0.0000 
     22 H22         1.5758   12.4304    2.0064 H         1 UNK         0.0000 
     23 H23         1.1884   10.7651    2.0953 H         1 UNK         0.0000 
     24 C24         1.3960    4.0982    0.8374 C.2       1 UNK         0.0000 
     25 O25         1.4929    4.2563    2.0602 O.2       1 UNK         0.0000 
     26 N26         0.7182    3.0821    0.2734 N.am      1 UNK         0.0000 
     27 C27         0.0802    1.9375    0.9599 C.3       1 UNK         0.0000 
     28 H28        -0.2909    2.2357    1.9492 H         1 UNK         0.0000 
     29 C29         1.1771    0.8501    1.1754 C.2       1 UNK         0.0000 
     30 O30         1.5392    0.3180    0.0934 O.co2     1 UNK         0.0000 
     31 O31         1.5474    0.6946    2.3642 O.co2     1 UNK         0.0000 
     32 C32        -1.1182    1.3789    0.1329 C.3       1 UNK         0.0000 
     33 O33        -1.5471    0.1080    0.6701 O.3       1 UNK         0.0000 
     34 C34        -2.0691   -0.9056   -0.2012 C.3       1 UNK         0.0000 
     35 O35        -1.0624   -1.3062   -1.0881 O.co2     1 UNK         0.0000 
     36 C36        -2.5834   -2.0650    0.7068 C.3       1 UNK         0.0000 
     37 H37        -3.1488   -2.6813    0.0119 H         1 UNK         0.0000 
     38 C38        -3.5856   -1.6620    1.8331 C.3       1 UNK         0.0000 
     39 O39        -2.9740   -0.9871    2.9160 O.3       1 UNK         0.0000 
     40 N40        -1.4609   -2.8825    1.2080 N.am      1 UNK         0.0000 
     41 C41        -1.5628   -4.1870    1.4724 C.2       1 UNK         0.0000 
     42 O42        -2.6532   -4.7860    1.4212 O.2       1 UNK         0.0000 
     43 C43        -0.2673   -5.0056    1.7556 C.3       1 UNK         0.0000 
     44 H44         0.3417   -4.4434    2.4698 H         1 UNK         0.0000 
     45 C45        -0.6641   -6.4155    2.3073 C.3       1 UNK         0.0000 
     46 C46         0.3795   -7.3856    2.8822 C.3       1 UNK         0.0000 
     47 C47        -0.3904   -8.6543    3.3203 C.3       1 UNK         0.0000 
     48 N48         0.4506   -9.7730    3.7856 N.pl3     1 UNK         0.0000 
     49 C49        -0.0096  -10.9925    4.1165 C.cat     1 UNK         0.0000 
     50 N50        -1.3180  -11.2636    4.0471 N.pl3     1 UNK         0.0000 
     51 N51         0.8380  -11.9460    4.5100 N.pl3     1 UNK         0.0000 
     52 H52         0.5300  -12.8772    4.7601 H         1 UNK         0.0000 
     53 H53         1.8337  -11.7805    4.5769 H         1 UNK         0.0000 
     54 N54         0.4110   -5.0977    0.4666 N.am      1 UNK         0.0000 
     55 C55         1.6727   -4.7735    0.1834 C.2       1 UNK         0.0000 
     56 O56         2.5768   -4.7507    1.0339 O.2       1 UNK         0.0000 
     57 C57         1.8408   -4.5066   -1.3014 C.ar      1 UNK         0.0000 
     58 C58         1.9060   -3.1874   -1.8141 C.ar      1 UNK         0.0000 
     59 O59         2.0594   -2.1795   -1.0547 O.co2     1 UNK         0.0000 
     60 C60         1.6884   -2.9439   -3.1827 C.ar      1 UNK         0.0000 
     61 O61         1.6036   -1.7520   -3.6229 O.co2     1 UNK         0.0000 
     62 C62         1.4672   -4.0136   -4.0487 C.ar      1 UNK         0.0000 
     63 C63         1.5016   -5.3278   -3.5737 C.ar      1 UNK         0.0000 
     64 C64         1.6874   -5.5749   -2.2080 C.ar      1 UNK         0.0000 
     65 H65         1.0829    5.4022   -4.3575 H         1 UNK         0.0000 
     66 H66        -0.8872    4.3915   -5.4886 H         1 UNK         0.0000 
     67 H67        -1.5385    2.0668   -4.9582 H         1 UNK         0.0000 
     68 H68         0.7310    4.6803   -1.6807 H         1 UNK         0.0000 
     69 H69         1.2995    6.6703    1.4019 H         1 UNK         0.0000 
     70 H70         0.1492    6.3986    0.1254 H         1 UNK         0.0000 
     71 H71         1.5966    7.7509   -1.4136 H         1 UNK         0.0000 
     72 H72         2.7198    8.0317   -0.0936 H         1 UNK         0.0000 
     73 H73        -0.2630    8.8046   -0.0550 H         1 UNK         0.0000 
     74 H74         0.8443    9.0441    1.2608 H         1 UNK         0.0000 
     75 H75         1.1572   10.2421   -1.4462 H         1 UNK         0.0000 
     76 H76         1.6514   12.5192   -1.5659 H         1 UNK         0.0000 
     77 H77         1.8399   13.4557   -0.1445 H         1 UNK         0.0000 
     78 H78         0.8670    2.9042   -0.7163 H         1 UNK         0.0000 
     79 H79        -0.8262    1.3585   -0.9169 H         1 UNK         0.0000 
     80 H80        -1.9456    2.0765    0.1675 H         1 UNK         0.0000 
     81 H81        -4.0336   -2.5730    2.2298 H         1 UNK         0.0000 
     82 H82        -4.4094   -1.0645    1.4458 H         1 UNK         0.0000 
     83 H83        -2.1999   -0.5493    2.5074 H         1 UNK         0.0000 
     84 H84        -0.5498   -2.4520    1.0550 H         1 UNK         0.0000 
     85 H85        -1.3881   -6.2566    3.1117 H         1 UNK         0.0000 
     86 H86        -1.2132   -6.9353    1.5187 H         1 UNK         0.0000 
     87 H87         1.1711   -7.6066    2.1641 H         1 UNK         0.0000 
     88 H88         0.8461   -6.9083    3.7467 H         1 UNK         0.0000 
     89 H89        -1.0477   -8.9849    2.5143 H         1 UNK         0.0000 
     90 H90        -1.0397   -8.3928    4.1591 H         1 UNK         0.0000 
     91 H91         1.4358   -9.5341    3.8169 H         1 UNK         0.0000 
     92 H92        -1.9777  -10.5512    3.7635 H         1 UNK         0.0000 
     93 H93        -1.7119  -12.1691    4.2650 H         1 UNK         0.0000 
     94 H94        -0.1875   -4.9269   -0.3272 H         1 UNK         0.0000 
     95 H95         1.2504   -3.8064   -5.0920 H         1 UNK         0.0000 
     96 H96         1.3607   -6.1482   -4.2684 H         1 UNK         0.0000 
     97 H97         1.6680   -6.5906   -1.8268 H         1 UNK         0.0000 
     98 H98        -2.9470   -0.4755   -0.6993 H         1 UNK         0.0000 
@<TRIPOS>BOND
     1    1    6 nc   
     2    1    8 nc   
     3    1   30 nc   
     4    1   35 nc   
     5    1   59 nc   
     6    1   61 nc   
     7    2    9 ar   
     8    2    3 ar   
     9    2   65 1    
    10    3    4 ar   
    11    3   66 1    
    12    4    5 ar   
    13    4   67 1    
    14    5    6 1    
    15    5    7 ar   
    16    7    9 ar   
    17    7    8 1    
    18    9   10 1    
    19   10   11 2    
    20   10   12 am   BACKBONE|DICT|INTERRES
    21   12   13 1    
    22   12   68 1    
    23   13   14 1    
    24   13   15 1    
    25   13   24 1    
    26   15   69 1    
    27   15   16 1    
    28   15   70 1    
    29   16   72 1    
    30   16   17 1    
    31   16   71 1    
    32   17   74 1    
    33   17   18 1    
    34   17   73 1    
    35   18   19 ar   
    36   18   75 1    
    37   19   21 ar   
    38   19   20 ar   
    39   20   77 1    
    40   20   76 1    
    41   21   22 1    
    42   21   23 1    
    43   24   25 2    
    44   24   26 am   BACKBONE|DICT|INTERRES
    45   26   27 1    
    46   26   78 1    
    47   27   29 1    
    48   27   28 1    
    49   27   32 1    
    50   29   31 2    
    51   29   30 1    
    52   32   33 1    
    53   32   79 1    
    54   32   80 1    
    55   33   34 1    
    56   34   36 1    
    57   34   35 1    
    58   34   98 1    
    59   36   37 1    
    60   36   40 1    
    61   36   38 1    
    62   38   81 1    
    63   38   39 1    
    64   38   82 1    
    65   39   83 1    
    66   40   84 1    
    67   40   41 am   BACKBONE|DICT|INTERRES
    68   41   43 1    
    69   41   42 2    
    70   43   45 1    
    71   43   44 1    
    72   43   54 1    
    73   45   46 1    
    74   45   85 1    
    75   45   86 1    
    76   46   47 1    
    77   46   88 1    
    78   46   87 1    
    79   47   48 1    
    80   47   90 1    
    81   47   89 1    
    82   48   91 1    
    83   48   49 ar   
    84   49   51 ar   
    85   49   50 ar   
    86   50   93 1    
    87   50   92 1    
    88   51   53 1    
    89   51   52 1    
    90   54   55 am   BACKBONE|DICT|INTERRES
    91   54   94 1    
    92   55   56 2    
    93   55   57 1    
    94   57   58 ar   
    95   57   64 ar   
    96   58   59 1    
    97   58   60 ar   
    98   60   61 1    
    99   60   62 ar   
   100   62   63 ar   
   101   62   95 1    
   102   63   64 ar   
   103   63   96 1    
   104   64   97 1    
@<TRIPOS>SUBSTRUCTURE
     1 UNK         1 GROUP             0       ****    0 ROOT    
@<TRIPOS>MOLECULE
120_c1
71   80    1
SMALL
USER_CHARGES


@<TRIPOS>ATOM
      1 Fe1         0.0001   -0.2030    0.1912 Fe        1 UNK         0.0000 
      2 O2          1.2731    1.5942   -0.4679 O.co2     1 UNK         0.0000 
      3 C3          2.3670    0.9912   -0.4766 C.2       1 UNK         0.0000 
      4 O4          2.2438   -0.0799    0.1387 O.co2     1 UNK         0.0000 
      5 C5          3.4732    1.1672   -1.5714 C.3       1 UNK         0.0000 
      6 H6          4.3503    1.6012   -1.0847 H         1 UNK         0.0000 
      7 C7          3.0636    2.0389   -2.8074 C.3       1 UNK         0.0000 
      8 S8          2.6835    0.8865   -4.2025 S.3       1 UNK         0.0000 
      9 C9          2.6735   -0.4707   -3.0308 C.3       1 UNK         0.0000 
     10 H10         1.7559   -0.1086   -2.5826 H         1 UNK         0.0000 
     11 N11         3.7843   -0.1786   -2.1071 N.3       1 UNK         0.0000 
     12 C12         5.1588   -0.3117   -2.6176 C.3       1 UNK         0.0000 
     13 C13         2.1487   -1.9439   -3.2136 C.3       1 UNK         0.0000 
     14 H14         1.4840   -1.9475   -4.0824 H         1 UNK         0.0000 
     15 N15         1.3116   -2.3091   -2.0838 N.2       1 UNK         0.0000 
     16 C16         1.3605   -3.5325   -1.7016 C.2       1 UNK         0.0000 
     17 S17         2.4759   -4.5427   -2.7030 S.3       1 UNK         0.0000 
     18 C18         3.2072   -3.0306   -3.3685 C.3       1 UNK         0.0000 
     19 C19         0.6273   -4.1147   -0.5097 C.ar      1 UNK         0.0000 
     20 C20        -0.1559   -3.3278    0.3858 C.ar      1 UNK         0.0000 
     21 O21        -0.3685   -2.0832    0.2319 O.co2     1 UNK         0.0000 
     22 C22        -0.7687   -3.8829    1.5012 C.ar      1 UNK         0.0000 
     23 C23        -0.6215   -5.2324    1.7972 C.ar      1 UNK         0.0000 
     24 C24         0.1464   -6.0299    0.9619 C.ar      1 UNK         0.0000 
     25 C25         0.7531   -5.4917   -0.1788 C.ar      1 UNK         0.0000 
     26 H26         3.8690    2.7255   -3.1037 H         1 UNK         0.0000 
     27 H27         2.1878    2.6576   -2.6001 H         1 UNK         0.0000 
     28 H28         5.4028    0.4288   -3.3821 H         1 UNK         0.0000 
     29 H29         5.8849   -0.1810   -1.8115 H         1 UNK         0.0000 
     30 H30         5.3649   -1.2913   -3.0479 H         1 UNK         0.0000 
     31 H31         3.5517   -3.1391   -4.4025 H         1 UNK         0.0000 
     32 H32         4.0539   -2.8510   -2.7118 H         1 UNK         0.0000 
     33 H33        -1.3728   -3.2549    2.1612 H         1 UNK         0.0000 
     34 H34        -1.0958   -5.6361    2.6670 H         1 UNK         0.0000 
     35 H35         0.2435   -7.0658    1.2131 H         1 UNK         0.0000 
     36 H36         1.3008   -6.1855   -0.8043 H         1 UNK         0.0000 
     37 O37        -1.2766    0.4578   -1.6029 O.co2     1 UNK         0.0000 
     38 C38        -2.3689    0.4653   -0.9980 C.2       1 UNK         0.0000 
     39 O39        -2.2437   -0.1517    0.0717 O.co2     1 UNK         0.0000 
     40 C40        -3.4776    1.5584   -1.1701 C.3       1 UNK         0.0000 
     41 H41        -4.3530    1.0720   -1.6079 H         1 UNK         0.0000 
     42 C42        -3.0700    2.7987   -2.0366 C.3       1 UNK         0.0000 
     43 S43        -2.6930    4.1899   -0.8793 S.3       1 UNK         0.0000 
     44 C44        -2.6830    3.0141    0.4738 C.3       1 UNK         0.0000 
     45 H45        -1.7645    2.5677    0.1119 H         1 UNK         0.0000 
     46 N46        -3.7913    2.0889    0.1771 N.3       1 UNK         0.0000 
     47 C47        -5.1666    2.5976    0.3086 C.3       1 UNK         0.0000 
     48 C48        -2.1626    3.1964    1.9485 C.3       1 UNK         0.0000 
     49 H49        -1.5055    4.0708    1.9560 H         1 UNK         0.0000 
     50 N50        -1.3163    2.0724    2.3103 N.2       1 UNK         0.0000 
     51 C51        -1.3653    1.6834    3.5310 C.2       1 UNK         0.0000 
     52 S52        -2.4909    2.6709    4.5439 S.3       1 UNK         0.0000 
     53 C53        -3.2243    3.3401    3.0344 C.3       1 UNK         0.0000 
     54 C54        -0.6239    0.4955    4.1083 C.ar      1 UNK         0.0000 
     55 C55         0.1620   -0.3949    3.3178 C.ar      1 UNK         0.0000 
     56 O56         0.3673   -0.2404    2.0715 O.co2     1 UNK         0.0000 
     57 C57         0.7833   -1.5058    3.8709 C.ar      1 UNK         0.0000 
     58 C58         0.6409   -1.8044    5.2206 C.ar      1 UNK         0.0000 
     59 C59        -0.1313   -0.9748    6.0204 C.ar      1 UNK         0.0000 
     60 C60        -0.7451    0.1625    5.4849 C.ar      1 UNK         0.0000 
     61 H61        -3.8759    3.0974   -2.7216 H         1 UNK         0.0000 
     62 H62        -2.1933    2.5977   -2.6558 H         1 UNK         0.0000 
     63 H63        -5.4088    3.3632   -0.4313 H         1 UNK         0.0000 
     64 H64        -5.8919    1.7913    0.1751 H         1 UNK         0.0000 
     65 H65        -5.3742    3.0260    1.2883 H         1 UNK         0.0000 
     66 H66        -3.5734    4.3722    3.1493 H         1 UNK         0.0000 
     67 H67        -4.0677    2.6795    2.8506 H         1 UNK         0.0000 
     68 H68         1.3890   -2.1623    3.2413 H         1 UNK         0.0000 
     69 H69         1.1210   -2.6710    5.6230 H         1 UNK         0.0000 
     70 H70        -0.2256   -1.2265    7.0562 H         1 UNK         0.0000 
     71 H71        -1.2958    0.7845    6.1797 H         1 UNK         0.0000 
@<TRIPOS>BOND
     1    1    2 nc   
     2    1    4 nc   
     3    1   21 nc   
     4    1   37 nc   
     5    1   39 nc   
     6    1   56 nc   
     7    2    3 2    
     8    3    4 1    
     9    3    5 1    
    10    5    6 1    
    11    5    7 1    
    12    5   11 1    
    13    7   27 1    
    14    7    8 1    
    15    7   26 1    
    16    8    9 1    
    17    9   10 1    
    18    9   11 1    
    19    9   13 1    
    20   11   12 1    
    21   12   29 1    
    22   12   28 1    
    23   12   30 1    
    24   13   14 1    
    25   13   15 1    
    26   13   18 1    
    27   15   16 2    
    28   16   19 1    
    29   16   17 1    
    30   17   18 1    
    31   18   32 1    
    32   18   31 1    
    33   19   25 ar   
    34   19   20 ar   
    35   20   22 ar   
    36   20   21 1    
    37   22   23 ar   
    38   22   33 1    
    39   23   34 1    
    40   23   24 ar   
    41   24   35 1    
    42   24   25 ar   
    43   25   36 1    
    44   37   38 2    
    45   38   39 1    
    46   38   40 1    
    47   40   41 1    
    48   40   46 1    
    49   40   42 1    
    50   42   43 1    
    51   42   61 1    
    52   42   62 1    
    53   43   44 1    
    54   44   45 1    
    55   44   48 1    
    56   44   46 1    
    57   46   47 1    
    58   47   65 1    
    59   47   63 1    
    60   47   64 1    
    61   48   49 1    
    62   48   50 1    
    63   48   53 1    
    64   50   51 2    
    65   51   54 1    
    66   51   52 1    
    67   52   53 1    
    68   53   66 1    
    69   53   67 1    
    70   54   60 ar   
    71   54   55 ar   
    72   55   57 ar   
    73   55   56 1    
    74   57   58 ar   
    75   57   68 1    
    76   58   69 1    
    77   58   59 ar   
    78   59   70 1    
    79   59   60 ar   
    80   60   71 1    
@<TRIPOS>SUBSTRUCTURE
     1 UNK         1 GROUP             0       ****    0 ROOT    
@<TRIPOS>MOLECULE
120_c2
71   80    1
SMALL
USER_CHARGES


@<TRIPOS>ATOM
      1 Fe1         0.2810   -0.1588    0.5772 Fe        1 UNK         0.0000 
      2 O2         -0.5188    2.7589   -0.1908 O.co2     1 UNK         0.0000 
      3 C3         -0.3191    3.9121   -0.6382 C.2       1 UNK         0.0000 
      4 O4         -1.1723    4.5869   -1.2764 O.co2     1 UNK         0.0000 
      5 C5          1.0567    4.6228   -0.3811 C.3       1 UNK         0.0000 
      6 H6          0.9143    5.6731   -0.6315 H         1 UNK         0.0000 
      7 C7          1.4689    4.5624    1.1116 C.3       1 UNK         0.0000 
      8 S8          3.2672    4.3843    1.0893 S.3       1 UNK         0.0000 
      9 C9          3.1172    3.3788   -0.4138 C.3       1 UNK         0.0000 
     10 H10         4.1027    3.4130   -0.8745 H         1 UNK         0.0000 
     11 N11         2.2059    4.1853   -1.2287 N.3       1 UNK         0.0000 
     12 C12         1.9363    3.6768   -2.5746 C.3       1 UNK         0.0000 
     13 C13         2.6764    1.8618   -0.2283 C.3       1 UNK         0.0000 
     14 H14         1.7338    1.6753   -0.7456 H         1 UNK         0.0000 
     15 N15         2.4240    1.4922    1.1389 N.pl3     1 UNK         0.0000 
     16 C16         3.3445    0.7837    1.6361 C.2       1 UNK         0.0000 
     17 S17         4.7279    0.3898    0.5702 S.3       1 UNK         0.0000 
     18 C18         3.6885    0.8711   -0.8140 C.3       1 UNK         0.0000 
     19 C19         3.2988    0.2502    2.9947 C.ar      1 UNK         0.0000 
     20 C20         2.8196   -1.0526    3.2680 C.ar      1 UNK         0.0000 
     21 O21         2.4226   -1.8568    2.3506 O.co2     1 UNK         0.0000 
     22 C22         2.7222   -1.4758    4.5958 C.ar      1 UNK         0.0000 
     23 C23         3.0761   -0.6285    5.6473 C.ar      1 UNK         0.0000 
     24 C24         3.5344    0.6617    5.3741 C.ar      1 UNK         0.0000 
     25 C25         3.6460    1.0986    4.0554 C.ar      1 UNK         0.0000 
     26 H26         1.0459    3.7037    1.6386 H         1 UNK         0.0000 
     27 H27         1.2061    5.4647    1.6575 H         1 UNK         0.0000 
     28 H28         1.3895    2.7350   -2.5450 H         1 UNK         0.0000 
     29 H29         1.3279    4.3858   -3.1340 H         1 UNK         0.0000 
     30 H30         2.8576    3.4989   -3.1272 H         1 UNK         0.0000 
     31 H31         4.2573    1.2768   -1.6489 H         1 UNK         0.0000 
     32 H32         3.2081   -0.0484   -1.1517 H         1 UNK         0.0000 
     33 H33         2.9581   -0.9615    6.6662 H         1 UNK         0.0000 
     34 H34         3.7660    1.3405    6.1766 H         1 UNK         0.0000 
     35 O35         1.2129   -0.0707   -2.5661 O.co2     1 UNK         0.0000 
     36 C36         0.9572    0.1117   -3.7764 C.2       1 UNK         0.0000 
     37 O37         1.7767    0.5813   -4.6151 O.co2     1 UNK         0.0000 
     38 C38        -0.4436   -0.2992   -4.3483 C.3       1 UNK         0.0000 
     39 H39        -0.3443   -0.3177   -5.4322 H         1 UNK         0.0000 
     40 C40        -0.8455   -1.7277   -3.9061 C.3       1 UNK         0.0000 
     41 S41        -2.6437   -1.6639   -3.7761 S.3       1 UNK         0.0000 
     42 C42        -2.4947    0.0235   -3.1259 C.3       1 UNK         0.0000 
     43 H43        -3.4818    0.4600   -3.2747 H         1 UNK         0.0000 
     44 N44        -1.5758    0.6398   -4.0870 N.3       1 UNK         0.0000 
     45 C45        -1.2858    2.0576   -3.8675 C.3       1 UNK         0.0000 
     46 C46        -2.0764    0.1770   -1.5947 C.3       1 UNK         0.0000 
     47 H47        -1.1068    0.6716   -1.5185 H         1 UNK         0.0000 
     48 N48        -1.9123   -1.0791   -0.9071 N.pl3     1 UNK         0.0000 
     49 C49        -2.9147   -1.3806   -0.1945 C.2       1 UNK         0.0000 
     50 S50        -4.2337   -0.1677   -0.1097 S.3       1 UNK         0.0000 
     51 C51        -3.0799    1.0225   -0.8038 C.3       1 UNK         0.0000 
     52 C52        -3.0260   -2.6325    0.5531 C.ar      1 UNK         0.0000 
     53 C53        -2.7915   -2.7151    1.9436 C.ar      1 UNK         0.0000 
     54 O54        -2.5138   -1.6937    2.6626 O.co2     1 UNK         0.0000 
     55 C55        -2.7998   -3.9646    2.5631 C.ar      1 UNK         0.0000 
     56 C56        -3.0514   -5.1271    1.8300 C.ar      1 UNK         0.0000 
     57 C57        -3.2935   -5.0439    0.4595 C.ar      1 UNK         0.0000 
     58 C58        -3.2753   -3.8043   -0.1771 C.ar      1 UNK         0.0000 
     59 H59        -0.4423   -2.0028   -2.9284 H         1 UNK         0.0000 
     60 H60        -0.5616   -2.4915   -4.6251 H         1 UNK         0.0000 
     61 H61        -0.6819    2.4538   -4.6826 H         1 UNK         0.0000 
     62 H62        -2.1982    2.6472   -3.7923 H         1 UNK         0.0000 
     63 H63        -0.7254    2.2081   -2.9455 H         1 UNK         0.0000 
     64 H64        -3.5737    1.7843   -1.4056 H         1 UNK         0.0000 
     65 H65        -2.6168    1.5205    0.0483 H         1 UNK         0.0000 
     66 H66        -3.0228   -6.0842    2.3220 H         1 UNK         0.0000 
     67 H67        -3.4581   -5.9351   -0.1226 H         1 UNK         0.0000 
     68 H68         3.9519    2.1155    3.8374 H         1 UNK         0.0000 
     69 H69         2.3203   -2.4558    4.7972 H         1 UNK         0.0000 
     70 H70        -2.5588   -4.0234    3.6116 H         1 UNK         0.0000 
     71 H71        -3.4055   -3.7412   -1.2500 H         1 UNK         0.0000 
@<TRIPOS>BOND
     1    1    2 nc   
     2    1   15 nc   
     3    1   21 nc   
     4    1   35 nc   
     5    1   48 nc   
     6    1   54 nc   
     7    2    3 1    
     8    3    4 2    
     9    3    5 1    
    10    5    6 1    
    11    5    7 1    
    12    5   11 1    
    13    7   26 1    
    14    7    8 1    
    15    7   27 1    
    16    8    9 1    
    17    9   10 1    
    18    9   13 1    
    19    9   11 1    
    20   11   12 1    
    21   12   29 1    
    22   12   28 1    
    23   12   30 1    
    24   13   14 1    
    25   13   15 1    
    26   13   18 1    
    27   15   16 2    
    28   16   19 1    
    29   16   17 1    
    30   17   18 1    
    31   18   31 1    
    32   18   32 1    
    33   19   25 ar   
    34   19   20 ar   
    35   20   21 1    
    36   20   22 ar   
    37   22   23 ar   
    38   22   69 1    
    39   23   24 ar   
    40   23   33 1    
    41   24   34 1    
    42   24   25 ar   
    43   25   68 1    
    44   35   36 1    
    45   36   37 2    
    46   36   38 1    
    47   38   44 1    
    48   38   39 1    
    49   38   40 1    
    50   40   41 1    
    51   40   59 1    
    52   40   60 1    
    53   41   42 1    
    54   42   46 1    
    55   42   43 1    
    56   42   44 1    
    57   44   45 1    
    58   45   63 1    
    59   45   61 1    
    60   45   62 1    
    61   46   47 1    
    62   46   51 1    
    63   46   48 1    
    64   48   49 2    
    65   49   52 1    
    66   49   50 1    
    67   50   51 1    
    68   51   65 1    
    69   51   64 1    
    70   52   53 ar   
    71   52   58 ar   
    72   53   54 1    
    73   53   55 ar   
    74   55   56 ar   
    75   55   70 1    
    76   56   66 1    
    77   56   57 ar   
    78   57   58 ar   
    79   57   67 1    
    80   58   71 1    
@<TRIPOS>SUBSTRUCTURE
     1 UNK         1 GROUP             0       ****    0 ROOT    
@<TRIPOS>MOLECULE
122_c1
70   78    1
SMALL
USER_CHARGES


@<TRIPOS>ATOM
      1 Fe1        -1.7275   -1.9895    0.0730 Fe        1 UNK         0.0000 
      2 C2         -0.0376   -1.9163    5.1327 C.ar      1 UNK         0.0000 
      3 C3         -0.9500   -2.9652    5.2467 C.ar      1 UNK         0.0000 
      4 C4         -1.5311   -3.5005    4.1033 C.ar      1 UNK         0.0000 
      5 C5         -1.2232   -2.9570    2.8634 C.ar      1 UNK         0.0000 
      6 O6         -1.7995   -3.3706    1.8281 O.co2     1 UNK         0.0000 
      7 C7         -0.3460   -1.8762    2.7208 C.ar      1 UNK         0.0000 
      8 O8         -0.2744   -1.4086    1.5206 O.co2     1 UNK         0.0000 
      9 C9          0.2876   -1.3568    3.8795 C.ar      1 UNK         0.0000 
     10 C10         1.2489   -0.1933    3.8489 C.2       1 UNK         0.0000 
     11 O11         2.0806    0.0101    4.7477 O.2       1 UNK         0.0000 
     12 N12         1.0804    0.6490    2.8310 N.am      1 UNK         0.0000 
     13 C13         1.8692    1.8521    2.5423 C.3       1 UNK         0.0000 
     14 H14         2.6570    1.9572    3.2906 H         1 UNK         0.0000 
     15 C15         2.5644    1.7353    1.1778 C.3       1 UNK         0.0000 
     16 O16         1.5978    1.5059    0.1647 O.3       1 UNK         0.0000 
     17 C17         1.6460    2.1106   -1.0261 C.2       1 UNK         0.0000 
     18 O18         2.5020    2.9442   -1.3675 O.2       1 UNK         0.0000 
     19 C19         0.4673    1.7054   -1.9024 C.3       1 UNK         0.0000 
     20 H20        -0.1161    0.9525   -1.4108 H         1 UNK         0.0000 
     21 N21         1.0539    1.2669   -3.1689 N.am      1 UNK         0.0000 
     22 C22         0.9721    0.1569   -3.9194 C.2       1 UNK         0.0000 
     23 O23         1.7304    0.1813   -4.8984 O.2       1 UNK         0.0000 
     24 C24        -0.0296   -0.9960   -3.7833 C.ar      1 UNK         0.0000 
     25 C25        -0.4759   -1.6456   -2.5904 C.ar      1 UNK         0.0000 
     26 O26        -0.3187   -1.2602   -1.3810 O.co2     1 UNK         0.0000 
     27 C27        -1.2250   -2.8291   -2.6895 C.ar      1 UNK         0.0000 
     28 O28        -1.6235   -3.3805   -1.6276 O.co2     1 UNK         0.0000 
     29 C29        -1.6101   -3.3536   -3.9182 C.ar      1 UNK         0.0000 
     30 C30        -1.2563   -2.6896   -5.0848 C.ar      1 UNK         0.0000 
     31 C31        -0.4704   -1.5422   -5.0140 C.ar      1 UNK         0.0000 
     32 C32        -0.5158    2.8761   -2.0554 C.3       1 UNK         0.0000 
     33 O33        -1.0289    3.0486   -0.7533 O.3       1 UNK         0.0000 
     34 C34        -1.8873    3.9916   -0.3980 C.2       1 UNK         0.0000 
     35 O35        -2.2259    4.9585   -1.0930 O.2       1 UNK         0.0000 
     36 C36        -2.3384    3.7797    1.0389 C.3       1 UNK         0.0000 
     37 H37        -3.0924    4.5392    1.2549 H         1 UNK         0.0000 
     38 C38        -1.1701    4.0006    2.0352 C.3       1 UNK         0.0000 
     39 O39        -0.1618    3.0019    1.9220 O.3       1 UNK         0.0000 
     40 C40         0.9814    3.0883    2.6390 C.2       1 UNK         0.0000 
     41 O41         1.3321    4.0952    3.2702 O.2       1 UNK         0.0000 
     42 N42        -2.9379    2.4296    1.1043 N.am      1 UNK         0.0000 
     43 C43        -4.1860    2.1347    1.4466 C.2       1 UNK         0.0000 
     44 O44        -4.9739    3.0126    1.8432 O.2       1 UNK         0.0000 
     45 C45        -4.6055    0.6829    1.3012 C.ar      1 UNK         0.0000 
     46 C46        -3.8331   -0.3104    0.6390 C.ar      1 UNK         0.0000 
     47 O47        -2.6219   -0.2169    0.2267 O.co2     1 UNK         0.0000 
     48 C48        -4.3765   -1.5874    0.4906 C.ar      1 UNK         0.0000 
     49 O49        -3.6497   -2.4498   -0.0456 O.co2     1 UNK         0.0000 
     50 C50        -5.6118   -1.9411    1.0187 C.ar      1 UNK         0.0000 
     51 C51        -6.3421   -0.9947    1.7229 C.ar      1 UNK         0.0000 
     52 C52        -5.8487    0.3045    1.8493 C.ar      1 UNK         0.0000 
     53 H53         0.3949   -1.5115    6.0340 H         1 UNK         0.0000 
     54 H54        -1.2287   -3.3513    6.2101 H         1 UNK         0.0000 
     55 H55        -2.2497   -4.3049    4.1443 H         1 UNK         0.0000 
     56 H56         0.4978    0.2132    2.0958 H         1 UNK         0.0000 
     57 H57         3.1934    2.6091    1.0029 H         1 UNK         0.0000 
     58 H58         3.2295    0.8732    1.1996 H         1 UNK         0.0000 
     59 H59         1.7744    1.8750   -3.5027 H         1 UNK         0.0000 
     60 H60        -2.2112   -4.2516   -3.9431 H         1 UNK         0.0000 
     61 H61        -1.5604   -3.0857   -6.0383 H         1 UNK         0.0000 
     62 H62        -0.1614   -1.0997   -5.9515 H         1 UNK         0.0000 
     63 H63        -1.3193    2.6091   -2.7413 H         1 UNK         0.0000 
     64 H64        -0.0428    3.7752   -2.4572 H         1 UNK         0.0000 
     65 H65        -0.7694    5.0086    1.9057 H         1 UNK         0.0000 
     66 H66        -1.5467    3.9695    3.0550 H         1 UNK         0.0000 
     67 H67        -2.4291    1.5983    0.7671 H         1 UNK         0.0000 
     68 H68        -5.9588   -2.9545    0.9105 H         1 UNK         0.0000 
     69 H69        -7.2753   -1.2711    2.1763 H         1 UNK         0.0000 
     70 H70        -6.4423    1.0164    2.3971 H         1 UNK         0.0000 
@<TRIPOS>BOND
     1    1    6 nc   
     2    1    8 nc   
     3    1   26 nc   
     4    1   28 nc   
     5    1   47 nc   
     6    1   49 nc   
     7    2    3 ar   
     8    2   53 1    
     9    2    9 ar   
    10    3   54 1    
    11    3    4 ar   
    12    4   55 1    
    13    4    5 ar   
    14    5    6 1    
    15    5    7 ar   
    16    7    9 ar   
    17    7    8 1    
    18    9   10 1    
    19   10   11 2    
    20   10   12 am   BACKBONE|DICT|INTERRES
    21   12   13 1    
    22   12   56 1    
    23   13   40 1    
    24   13   14 1    
    25   13   15 1    
    26   15   58 1    
    27   15   16 1    
    28   15   57 1    
    29   16   17 1    
    30   17   18 2    
    31   17   19 1    
    32   19   20 1    
    33   19   21 1    
    34   19   32 1    
    35   21   22 am   BACKBONE|DICT|INTERRES
    36   21   59 1    
    37   22   24 1    
    38   22   23 2    
    39   24   25 ar   
    40   24   31 ar   
    41   25   26 1    
    42   25   27 ar   
    43   27   28 1    
    44   27   29 ar   
    45   29   30 ar   
    46   29   60 1    
    47   30   31 ar   
    48   30   61 1    
    49   31   62 1    
    50   32   33 1    
    51   32   63 1    
    52   32   64 1    
    53   33   34 1    
    54   34   36 1    
    55   34   35 2    
    56   36   42 1    
    57   36   37 1    
    58   36   38 1    
    59   38   66 1    
    60   38   39 1    
    61   38   65 1    
    62   39   40 1    
    63   40   41 2    
    64   42   43 am   BACKBONE|DICT|INTERRES
    65   42   67 1    
    66   43   44 2    
    67   43   45 1    
    68   45   52 ar   
    69   45   46 ar   
    70   46   47 1    
    71   46   48 ar   
    72   48   50 ar   
    73   48   49 1    
    74   50   51 ar   
    75   50   68 1    
    76   51   52 ar   
    77   51   69 1    
    78   52   70 1    
@<TRIPOS>SUBSTRUCTURE
     1 UNK         1 GROUP             0       ****    0 ROOT    
@<TRIPOS>MOLECULE
124_c1
81   86    1
SMALL
USER_CHARGES


@<TRIPOS>ATOM
      1 Fe1         0.4763   -0.5375   -1.8035 Fe        1 UNK         0.0000 
      2 O2         -1.3538    0.3017   -2.6706 O.co2     1 UNK         0.0000 
      3 C3         -1.3629    1.5257   -2.7938 C.2       1 UNK         0.0000 
      4 C4         -2.7178    2.2273   -2.8574 C.3       1 UNK         0.0000 
      5 N5         -0.1554    2.1483   -2.7965 N.am      1 UNK         0.0000 
      6 O6          0.9975    1.4736   -2.7279 O.co2     1 UNK         0.0000 
      7 C7          0.0456    3.5978   -2.7213 C.3       1 UNK         0.0000 
      8 C8          0.5295    4.0297   -1.3224 C.3       1 UNK         0.0000 
      9 C9          0.7652    5.5461   -1.2064 C.3       1 UNK         0.0000 
     10 C10         1.1392    6.0258    0.2205 C.3       1 UNK         0.0000 
     11 H11         1.2526    7.1113    0.1645 H         1 UNK         0.0000 
     12 N12         2.4306    5.4903    0.6980 N.am      1 UNK         0.0000 
     13 C13         2.6510    4.8569    1.8592 C.2       1 UNK         0.0000 
     14 O14         3.7929    4.5270    2.1476 O.2       1 UNK         0.0000 
     15 C15        -0.0956    5.8690    1.1669 C.2       1 UNK         0.0000 
     16 O16        -1.2185    6.2977    0.9391 O.2       1 UNK         0.0000 
     17 N17         0.1146    5.1950    2.3052 N.am      1 UNK         0.0000 
     18 C18         1.3937    4.6146    2.7593 C.3       1 UNK         0.0000 
     19 H19         1.6687    5.1469    3.6740 H         1 UNK         0.0000 
     20 C20         1.2721    3.1091    3.1345 C.3       1 UNK         0.0000 
     21 C21         0.8926    2.1790    1.9605 C.3       1 UNK         0.0000 
     22 C22         0.7256    0.6873    2.3508 C.3       1 UNK         0.0000 
     23 N23         0.4564   -0.1989    1.1948 N.am      1 UNK         0.0000 
     24 O24         1.3791   -0.1040    0.2307 O.co2     1 UNK         0.0000 
     25 C25        -0.6790   -0.9249    1.0048 C.2       1 UNK         0.0000 
     26 O26        -0.9243   -1.2931   -0.1448 O.co2     1 UNK         0.0000 
     27 C27        -1.7093   -1.2897    2.1102 C.3       1 UNK         0.0000 
     28 H28        -2.1703   -0.3419    2.3996 H         1 UNK         0.0000 
     29 C29        -1.1598   -1.9492    3.4075 C.3       1 UNK         0.0000 
     30 O30        -2.2048   -1.9839    4.3673 O.3       1 UNK         0.0000 
     31 N31        -2.7932   -2.1384    1.5744 N.am      1 UNK         0.0000 
     32 C32        -2.7884   -3.3694    1.0223 C.2       1 UNK         0.0000 
     33 O33        -3.8485   -3.9029    0.7151 O.2       1 UNK         0.0000 
     34 C34        -1.4948   -4.1782    0.7576 C.3       1 UNK         0.0000 
     35 H35        -0.6463   -3.6375    1.1670 H         1 UNK         0.0000 
     36 N36        -1.6355   -5.4354    1.4803 N.am      1 UNK         0.0000 
     37 C37        -0.6268   -6.1761    1.9477 C.2       1 UNK         0.0000 
     38 O38         0.5510   -5.8438    1.8470 O.2       1 UNK         0.0000 
     39 C39        -0.9920   -7.4832    2.6305 C.3       1 UNK         0.0000 
     40 C40        -1.2237   -4.4041   -0.7638 C.3       1 UNK         0.0000 
     41 C41         0.2673   -4.7424   -1.1142 C.3       1 UNK         0.0000 
     42 C42         0.8191   -4.3401   -2.5222 C.3       1 UNK         0.0000 
     43 N43         1.0942   -2.8963   -2.6840 N.am      1 UNK         0.0000 
     44 O44         0.0317   -2.1372   -2.5160 O.co2     1 UNK         0.0000 
     45 C45         2.3189   -2.3200   -2.7680 C.2       1 UNK         0.0000 
     46 O46         2.3243   -1.1106   -2.5204 O.co2     1 UNK         0.0000 
     47 C47         3.5977   -3.0692   -3.1071 C.3       1 UNK         0.0000 
     48 H48        -2.6870    3.3105   -2.9001 H         1 UNK         0.0000 
     49 H49        -3.2575    1.8700   -3.7344 H         1 UNK         0.0000 
     50 H50        -3.2991    1.9457   -1.9796 H         1 UNK         0.0000 
     51 H51         0.7867    3.8804   -3.4733 H         1 UNK         0.0000 
     52 H52        -0.8295    4.1856   -3.0012 H         1 UNK         0.0000 
     53 H53         1.4551    3.5077   -1.0767 H         1 UNK         0.0000 
     54 H54        -0.2083    3.7073   -0.5883 H         1 UNK         0.0000 
     55 H55         1.5655    5.8279   -1.8929 H         1 UNK         0.0000 
     56 H56        -0.1181    6.0817   -1.5603 H         1 UNK         0.0000 
     57 H57         3.2551    5.5821    0.1258 H         1 UNK         0.0000 
     58 H58        -0.7108    5.0977    2.8730 H         1 UNK         0.0000 
     59 H59         2.2040    2.7659    3.5895 H         1 UNK         0.0000 
     60 H60         0.5172    3.0137    3.9165 H         1 UNK         0.0000 
     61 H61        -0.0328    2.5309    1.5069 H         1 UNK         0.0000 
     62 H62         1.6645    2.2693    1.1976 H         1 UNK         0.0000 
     63 H63        -0.0317    0.6438    3.1373 H         1 UNK         0.0000 
     64 H64         1.6388    0.3536    2.8525 H         1 UNK         0.0000 
     65 H65        -0.3305   -1.3951    3.8404 H         1 UNK         0.0000 
     66 H66        -0.7930   -2.9562    3.2413 H         1 UNK         0.0000 
     67 H67        -1.9431   -2.5176    5.1226 H         1 UNK         0.0000 
     68 H68        -3.7043   -1.7297    1.6801 H         1 UNK         0.0000 
     69 H69        -2.5990   -5.7107    1.6216 H         1 UNK         0.0000 
     70 H70        -1.6539   -8.0778    1.9999 H         1 UNK         0.0000 
     71 H71        -1.4882   -7.2869    3.5806 H         1 UNK         0.0000 
     72 H72        -0.0931   -8.0696    2.8264 H         1 UNK         0.0000 
     73 H73        -1.5690   -3.5297   -1.3118 H         1 UNK         0.0000 
     74 H74        -1.8711   -5.2077   -1.1247 H         1 UNK         0.0000 
     75 H75         0.9386   -4.3360   -0.3573 H         1 UNK         0.0000 
     76 H76         0.3744   -5.8262   -1.0220 H         1 UNK         0.0000 
     77 H77         1.7008   -4.9420   -2.7387 H         1 UNK         0.0000 
     78 H78         0.0952   -4.6292   -3.2868 H         1 UNK         0.0000 
     79 H79         4.3774   -2.3356   -3.3066 H         1 UNK         0.0000 
     80 H80         3.9271   -3.7107   -2.2899 H         1 UNK         0.0000 
     81 H81         3.4606   -3.6513   -4.0146 H         1 UNK         0.0000 
@<TRIPOS>BOND
     1    1    2 nc   
     2    1    6 nc   
     3    1   24 nc   
     4    1   26 nc   
     5    1   44 nc   
     6    1   46 nc   
     7    2    3 2    
     8    3    4 1    
     9    3    5 am   BACKBONE|DICT|INTERRES
    10    4   50 1    
    11    4   48 1    
    12    4   49 1    
    13    5    6 1    
    14    5    7 1    
    15    7    8 1    
    16    7   51 1    
    17    7   52 1    
    18    8    9 1    
    19    8   53 1    
    20    8   54 1    
    21    9   10 1    
    22    9   55 1    
    23    9   56 1    
    24   10   11 1    
    25   10   12 1    
    26   10   15 1    
    27   12   13 am   BACKBONE|DICT|INTERRES
    28   12   57 1    
    29   13   14 2    
    30   13   18 1    
    31   15   17 am   BACKBONE|DICT|INTERRES
    32   15   16 2    
    33   17   18 1    
    34   17   58 1    
    35   18   20 1    
    36   18   19 1    
    37   20   59 1    
    38   20   60 1    
    39   20   21 1    
    40   21   22 1    
    41   21   61 1    
    42   21   62 1    
    43   22   64 1    
    44   22   63 1    
    45   22   23 1    
    46   23   24 1    
    47   23   25 am   BACKBONE|DICT|INTERRES
    48   25   26 2    
    49   25   27 1    
    50   27   28 1    
    51   27   29 1    
    52   27   31 1    
    53   29   65 1    
    54   29   30 1    
    55   29   66 1    
    56   30   67 1    
    57   31   32 am   BACKBONE|DICT|INTERRES
    58   31   68 1    
    59   32   33 2    
    60   32   34 1    
    61   34   35 1    
    62   34   36 1    
    63   34   40 1    
    64   36   69 1    
    65   36   37 am   BACKBONE|DICT|INTERRES
    66   37   39 1    
    67   37   38 2    
    68   39   72 1    
    69   39   71 1    
    70   39   70 1    
    71   40   41 1    
    72   40   73 1    
    73   40   74 1    
    74   41   76 1    
    75   41   75 1    
    76   41   42 1    
    77   42   43 1    
    78   42   77 1    
    79   42   78 1    
    80   43   44 1    
    81   43   45 am   BACKBONE|DICT|INTERRES
    82   45   47 1    
    83   45   46 2    
    84   47   80 1    
    85   47   79 1    
    86   47   81 1    
@<TRIPOS>SUBSTRUCTURE
     1 UNK         1 GROUP             0       ****    0 ROOT    
@<TRIPOS>MOLECULE
126_c1
87   91    1
SMALL
USER_CHARGES


@<TRIPOS>ATOM
      1 Fe1         0.2193    1.2289    1.0760 Fe        1 UNK         0.0000 
      2 O2         -0.1084   -7.3355    5.6427 O.2       1 UNK         0.0000 
      3 C3         -0.9974   -6.5064    5.7912 C.2       1 UNK         0.0000 
      4 O4         -1.7632   -6.3799    6.9112 O.3       1 UNK         0.0000 
      5 C5         -1.4481   -5.6212    4.6041 C.3       1 UNK         0.0000 
      6 H6         -2.4300   -5.1760    4.7755 H         1 UNK         0.0000 
      7 N7         -1.5895   -6.6000    3.4733 N.4       1 UNK         0.0000 
      8 H8         -2.2183   -7.3465    3.7455 H         1 UNK         0.0000 
      9 H9         -1.9079   -6.1301    2.6407 H         1 UNK         0.0000 
     10 H10        -0.6626   -6.9765    3.3163 H         1 UNK         0.0000 
     11 C11        -0.3992   -4.5309    4.3006 C.3       1 UNK         0.0000 
     12 C12        -0.7113   -3.6250    3.0838 C.3       1 UNK         0.0000 
     13 C13         0.4225   -2.5979    2.8854 C.3       1 UNK         0.0000 
     14 N14         0.1376   -1.6080    1.8519 N.am      1 UNK         0.0000 
     15 O15        -0.3903   -0.4756    2.3452 O.co2     1 UNK         0.0000 
     16 C16         0.5521   -1.5554    0.5533 C.2       1 UNK         0.0000 
     17 O17         0.3441   -0.4264    0.1138 O.co2     1 UNK         0.0000 
     18 C18         1.3426   -2.5357   -0.3697 C.3       1 UNK         0.0000 
     19 H19         2.3815   -2.3362   -0.1245 H         1 UNK         0.0000 
     20 C20         1.0597   -4.0592   -0.1947 C.3       1 UNK         0.0000 
     21 H21        -0.0111   -4.2594   -0.2805 H         1 UNK         0.0000 
     22 O22         1.5393   -4.6291    1.0049 O.3       1 UNK         0.0000 
     23 C23         1.7967   -4.9014   -1.2592 C.3       1 UNK         0.0000 
     24 N24         1.0623   -2.1153   -1.7689 N.am      1 UNK         0.0000 
     25 C25         1.8968   -1.4096   -2.5462 C.2       1 UNK         0.0000 
     26 O26         3.0788   -1.2435   -2.2809 O.2       1 UNK         0.0000 
     27 C27         1.3923   -1.0456   -3.9701 C.3       1 UNK         0.0000 
     28 H28         0.3288   -1.2731   -4.0728 H         1 UNK         0.0000 
     29 N29         2.1249   -2.0560   -4.8135 N.4       1 UNK         0.0000 
     30 H30         3.1146   -1.8635   -4.7138 H         1 UNK         0.0000 
     31 H31         1.9384   -2.9811   -4.4573 H         1 UNK         0.0000 
     32 H32         1.8608   -1.9915   -5.7862 H         1 UNK         0.0000 
     33 C33         1.6629    0.4063   -4.4738 C.3       1 UNK         0.0000 
     34 C34         0.7034    1.5616   -4.0628 C.3       1 UNK         0.0000 
     35 C35         1.1791    2.5095   -2.9278 C.3       1 UNK         0.0000 
     36 N36         0.5685    2.2801   -1.6180 N.am      1 UNK         0.0000 
     37 O37         1.4245    1.9301   -0.6642 O.co2     1 UNK         0.0000 
     38 C38        -0.7136    2.4938   -1.2831 C.2       1 UNK         0.0000 
     39 O39        -1.0163    2.1815   -0.1291 O.co2     1 UNK         0.0000 
     40 C40        -1.7748    3.1128   -2.2033 C.3       1 UNK         0.0000 
     41 C41        -2.2354    4.4994   -1.7136 C.3       1 UNK         0.0000 
     42 N42        -1.1871    5.5355   -1.7093 N.am      1 UNK         0.0000 
     43 C43        -0.5858    6.2411   -0.7302 C.2       1 UNK         0.0000 
     44 O44         0.0057    7.2765   -1.0192 O.2       1 UNK         0.0000 
     45 C45        -0.6711    5.8870    0.7877 C.3       1 UNK         0.0000 
     46 H46        -1.3465    5.0599    0.9996 H         1 UNK         0.0000 
     47 N47        -1.2679    7.1362    1.3701 N.4       1 UNK         0.0000 
     48 H48        -1.3742    7.0563    2.3681 H         1 UNK         0.0000 
     49 H49        -0.6082    7.8730    1.1482 H         1 UNK         0.0000 
     50 H50        -2.1486    7.3271    0.9151 H         1 UNK         0.0000 
     51 C51         0.7370    5.6226    1.3955 C.3       1 UNK         0.0000 
     52 C52         0.8270    5.5303    2.9462 C.3       1 UNK         0.0000 
     53 C53         0.1151    4.3157    3.5918 C.3       1 UNK         0.0000 
     54 N54         0.4605    3.0350    2.9528 N.am      1 UNK         0.0000 
     55 O55        -0.5194    2.4205    2.3140 O.co2     1 UNK         0.0000 
     56 C56         1.7132    2.5579    2.8579 C.2       1 UNK         0.0000 
     57 O57         1.8119    1.6151    2.0652 O.co2     1 UNK         0.0000 
     58 H58         0.5698   -5.0154    4.1322 H         1 UNK         0.0000 
     59 H59        -0.2824   -3.8911    5.1835 H         1 UNK         0.0000 
     60 H60        -0.8208   -4.2242    2.1730 H         1 UNK         0.0000 
     61 H61        -1.6529   -3.0918    3.2519 H         1 UNK         0.0000 
     62 H62         1.3892   -3.0746    2.7582 H         1 UNK         0.0000 
     63 H63         0.5765   -2.0961    3.8426 H         1 UNK         0.0000 
     64 H64         2.5017   -4.5422    1.0364 H         1 UNK         0.0000 
     65 H65         2.8797   -4.7190   -1.2414 H         1 UNK         0.0000 
     66 H66         1.4466   -4.6829   -2.2704 H         1 UNK         0.0000 
     67 H67         1.6374   -5.9726   -1.0950 H         1 UNK         0.0000 
     68 H68         0.1000   -2.2363   -2.0414 H         1 UNK         0.0000 
     69 H69         1.5774    0.3639   -5.5601 H         1 UNK         0.0000 
     70 H70         2.7022    0.7009   -4.3112 H         1 UNK         0.0000 
     71 H71         0.6221    2.2154   -4.9325 H         1 UNK         0.0000 
     72 H72        -0.3102    1.1970   -3.8980 H         1 UNK         0.0000 
     73 H73         0.9540    3.5459   -3.1831 H         1 UNK         0.0000 
     74 H74         2.2688    2.4975   -2.8791 H         1 UNK         0.0000 
     75 H75        -2.6214    2.4711   -2.4412 H         1 UNK         0.0000 
     76 H76        -1.4045    3.2279   -3.2176 H         1 UNK         0.0000 
     77 H77        -2.4609    4.3411   -0.6622 H         1 UNK         0.0000 
     78 H78        -3.2595    4.7554   -1.9938 H         1 UNK         0.0000 
     79 H79        -0.9943    5.9131   -2.6318 H         1 UNK         0.0000 
     80 H80         1.4150    6.4271    1.0981 H         1 UNK         0.0000 
     81 H81         1.1634    4.7163    0.9580 H         1 UNK         0.0000 
     82 H82         1.8805    5.4687    3.2257 H         1 UNK         0.0000 
     83 H83         0.5029    6.4518    3.4343 H         1 UNK         0.0000 
     84 H84         0.3634    4.2515    4.6506 H         1 UNK         0.0000 
     85 H85        -0.9688    4.4754    3.5398 H         1 UNK         0.0000 
     86 H86        -2.4560   -5.7217    6.9739 H         1 UNK         0.0000 
     87 H87         2.4924    3.0783    3.4453 H         1 UNK         0.0000 
@<TRIPOS>BOND
     1    1   15 nc   
     2    1   17 nc   
     3    1   37 nc   
     4    1   39 nc   
     5    1   55 nc   
     6    1   57 nc   
     7    2    3 2    
     8    3    4 1    
     9    3    5 1    
    10    4   86 1    
    11    5    6 1    
    12    5    7 1    
    13    5   11 1    
    14    7    8 1    
    15    7    9 1    
    16    7   10 1    
    17   11   59 1    
    18   11   12 1    
    19   11   58 1    
    20   12   61 1    
    21   12   13 1    
    22   12   60 1    
    23   13   63 1    
    24   13   14 1    
    25   13   62 1    
    26   14   15 1    
    27   14   16 am   BACKBONE|DICT|INTERRES
    28   16   17 2    
    29   16   18 1    
    30   18   20 1    
    31   18   19 1    
    32   18   24 1    
    33   20   21 1    
    34   20   22 1    
    35   20   23 1    
    36   22   64 1    
    37   23   65 1    
    38   23   67 1    
    39   23   66 1    
    40   24   25 am   BACKBONE|DICT|INTERRES
    41   24   68 1    
    42   25   26 2    
    43   25   27 1    
    44   27   28 1    
    45   27   29 1    
    46   27   33 1    
    47   29   30 1    
    48   29   31 1    
    49   29   32 1    
    50   33   70 1    
    51   33   34 1    
    52   33   69 1    
    53   34   72 1    
    54   34   35 1    
    55   34   71 1    
    56   35   74 1    
    57   35   36 1    
    58   35   73 1    
    59   36   38 am   BACKBONE|DICT|INTERRES
    60   36   37 1    
    61   38   39 2    
    62   38   40 1    
    63   40   75 1    
    64   40   41 1    
    65   40   76 1    
    66   41   77 1    
    67   41   42 1    
    68   41   78 1    
    69   42   43 am   BACKBONE|DICT|INTERRES
    70   42   79 1    
    71   43   45 1    
    72   43   44 2    
    73   45   46 1    
    74   45   51 1    
    75   45   47 1    
    76   47   48 1    
    77   47   49 1    
    78   47   50 1    
    79   51   52 1    
    80   51   80 1    
    81   51   81 1    
    82   52   82 1    
    83   52   83 1    
    84   52   53 1    
    85   53   84 1    
    86   53   54 1    
    87   53   85 1    
    88   54   55 1    
    89   54   56 am   BACKBONE|DICT|INTERRES
    90   56   57 2    
    91   56   87 1    
@<TRIPOS>SUBSTRUCTURE
     1 UNK         1 GROUP             0       ****    0 ROOT    
@<TRIPOS>MOLECULE
127_c1
91   96    1
SMALL
USER_CHARGES


@<TRIPOS>ATOM
      1 Fe1        -1.5000    4.1218    0.4922 Fe        1 UNK         0.0000 
      2 C2         -3.6118    4.8075   -3.2990 C.3       1 UNK         0.0000 
      3 C3         -2.9578    4.1900   -2.0715 C.2       1 UNK         0.0000 
      4 O4         -2.6507    4.9033   -1.0989 O.co2     1 UNK         0.0000 
      5 N5         -2.7435    2.8554   -1.9520 N.am      1 UNK         0.0000 
      6 O6         -2.4066    2.3625   -0.7711 O.co2     1 UNK         0.0000 
      7 C7         -2.8629    1.8472   -3.0261 C.3       1 UNK         0.0000 
      8 C8         -2.0855    0.5073   -2.8139 C.3       1 UNK         0.0000 
      9 C9         -0.5381    0.6010   -2.7938 C.3       1 UNK         0.0000 
     10 C10         0.1284   -0.5476   -1.9891 C.3       1 UNK         0.0000 
     11 H11        -0.1535   -0.4218   -0.9502 H         1 UNK         0.0000 
     12 C12         1.6809   -0.5777   -2.1077 C.2       1 UNK         0.0000 
     13 O13         2.1892   -1.4204   -2.8475 O.2       1 UNK         0.0000 
     14 N14         2.4964    0.2674   -1.4465 N.am      1 UNK         0.0000 
     15 C15         2.1869    1.4038   -0.5719 C.3       1 UNK         0.0000 
     16 H16         1.5929    2.0681   -1.1974 H         1 UNK         0.0000 
     17 C17         3.4594    2.2138   -0.1855 C.3       1 UNK         0.0000 
     18 C18         3.2819    3.5277    0.6295 C.3       1 UNK         0.0000 
     19 C19         2.7196    4.7592   -0.1392 C.3       1 UNK         0.0000 
     20 N20         1.2960    5.0651    0.1278 N.am      1 UNK         0.0000 
     21 O21         0.4367    4.1312   -0.2859 O.co2     1 UNK         0.0000 
     22 C22         0.8390    6.1497    0.8136 C.2       1 UNK         0.0000 
     23 O23        -0.3746    6.1754    1.0101 O.co2     1 UNK         0.0000 
     24 C24         1.7164    7.2721    1.3869 C.3       1 UNK         0.0000 
     25 C25         1.3175    1.0119    0.6404 C.2       1 UNK         0.0000 
     26 O26         0.1651    1.3861    0.6115 O.2       1 UNK         0.0000 
     27 N27         1.8593    0.2688    1.6300 N.am      1 UNK         0.0000 
     28 C28         1.2031   -0.1682    2.8895 C.3       1 UNK         0.0000 
     29 H29         2.0071   -0.0921    3.6212 H         1 UNK         0.0000 
     30 C30         0.0617    0.7274    3.4818 C.3       1 UNK         0.0000 
     31 C31         0.4185    2.2001    3.8747 C.3       1 UNK         0.0000 
     32 C32        -0.8091    3.1079    4.2634 C.3       1 UNK         0.0000 
     33 N33        -1.6006    3.6501    3.1319 N.am      1 UNK         0.0000 
     34 O34        -1.5554    2.8964    2.0670 O.co2     1 UNK         0.0000 
     35 C35        -2.2389    4.8358    3.0328 C.2       1 UNK         0.0000 
     36 O36        -2.5673    5.1487    1.8663 O.co2     1 UNK         0.0000 
     37 C37        -2.4720    5.7695    4.2093 C.3       1 UNK         0.0000 
     38 C38         0.8575   -1.6836    2.9687 C.2       1 UNK         0.0000 
     39 O39        -0.0356   -2.0515    3.7251 O.2       1 UNK         0.0000 
     40 N40         1.6574   -2.5569    2.3316 N.am      1 UNK         0.0000 
     41 C41         1.6710   -3.9968    2.6388 C.3       1 UNK         0.0000 
     42 C42         0.5430   -4.8008    1.9663 C.2       1 UNK         0.0000 
     43 O43        -0.6180   -4.6871    2.3384 O.2       1 UNK         0.0000 
     44 N44         0.9073   -5.7228    1.0569 N.am      1 UNK         0.0000 
     45 C45        -0.0437   -6.6883    0.4849 C.3       1 UNK         0.0000 
     46 C46        -0.9459   -6.0639   -0.5899 C.2       1 UNK         0.0000 
     47 O47        -2.0726   -6.5132   -0.7833 O.2       1 UNK         0.0000 
     48 N48        -0.4240   -5.0614   -1.3020 N.am      1 UNK         0.0000 
     49 C49        -1.1871   -4.1476   -2.1351 C.3       1 UNK         0.0000 
     50 C50        -0.8262   -2.7810   -1.5620 C.2       1 UNK         0.0000 
     51 O51        -0.8899   -2.5909   -0.3507 O.2       1 UNK         0.0000 
     52 N52        -0.3807   -1.8549   -2.4170 N.am      1 UNK         0.0000 
     53 H53        -4.5756    5.2076   -2.9838 H         1 UNK         0.0000 
     54 H54        -3.0043    5.6258   -3.6815 H         1 UNK         0.0000 
     55 H55        -3.7989    4.0987   -4.1024 H         1 UNK         0.0000 
     56 H56        -2.5622    2.2832   -3.9835 H         1 UNK         0.0000 
     57 H57        -3.9260    1.6122   -3.1118 H         1 UNK         0.0000 
     58 H58        -2.4299    0.0683   -1.8770 H         1 UNK         0.0000 
     59 H59        -2.3804   -0.2086   -3.5759 H         1 UNK         0.0000 
     60 H60        -0.2511    1.5528   -2.3464 H         1 UNK         0.0000 
     61 H61        -0.1640    0.6125   -3.8164 H         1 UNK         0.0000 
     62 H62         3.4734    0.1567   -1.6597 H         1 UNK         0.0000 
     63 H63         4.0076    2.4598   -1.0971 H         1 UNK         0.0000 
     64 H64         4.1271    1.5579    0.3750 H         1 UNK         0.0000 
     65 H65         4.2656    3.7949    1.0201 H         1 UNK         0.0000 
     66 H66         2.6698    3.3461    1.5108 H         1 UNK         0.0000 
     67 H67         3.3879    5.5983    0.0772 H         1 UNK         0.0000 
     68 H68         2.8547    4.6399   -1.2138 H         1 UNK         0.0000 
     69 H69         1.4958    7.4104    2.4456 H         1 UNK         0.0000 
     70 H70         1.4758    8.2072    0.8875 H         1 UNK         0.0000 
     71 H71         2.7905    7.1410    1.3145 H         1 UNK         0.0000 
     72 H72         2.8175   -0.0083    1.5284 H         1 UNK         0.0000 
     73 H73        -0.7763    0.6678    2.7894 H         1 UNK         0.0000 
     74 H74        -0.3365    0.2644    4.3847 H         1 UNK         0.0000 
     75 H75         1.0980    2.1497    4.7269 H         1 UNK         0.0000 
     76 H76         0.9723    2.6831    3.0714 H         1 UNK         0.0000 
     77 H77        -1.4991    2.5039    4.8494 H         1 UNK         0.0000 
     78 H78        -0.4797    3.8967    4.9436 H         1 UNK         0.0000 
     79 H79        -1.8707    6.6704    4.0924 H         1 UNK         0.0000 
     80 H80        -2.2448    5.3053    5.1642 H         1 UNK         0.0000 
     81 H81        -3.5220    6.0499    4.2250 H         1 UNK         0.0000 
     82 H82         2.3705   -2.2095    1.7178 H         1 UNK         0.0000 
     83 H83         2.6429   -4.4149    2.3823 H         1 UNK         0.0000 
     84 H84         1.5626   -4.1346    3.7178 H         1 UNK         0.0000 
     85 H85         1.8703   -5.7937    0.7793 H         1 UNK         0.0000 
     86 H86        -0.6584   -7.1313    1.2700 H         1 UNK         0.0000 
     87 H87         0.5116   -7.5021    0.0210 H         1 UNK         0.0000 
     88 H88         0.4847   -4.7262   -1.0306 H         1 UNK         0.0000 
     89 H89        -0.8907   -4.2407   -3.1791 H         1 UNK         0.0000 
     90 H90        -2.2662   -4.3020   -2.0622 H         1 UNK         0.0000 
     91 H91        -0.1755   -2.1079   -3.3696 H         1 UNK         0.0000 
@<TRIPOS>BOND
     1    1    4 nc   
     2    1    6 nc   
     3    1   21 nc   
     4    1   23 nc   
     5    1   34 nc   
     6    1   36 nc   
     7    2   53 1    
     8    2    3 1    
     9    2   54 1    
    10    2   55 1    
    11    3    5 am   BACKBONE|DICT|INTERRES
    12    3    4 2    
    13    5    6 1    
    14    5    7 1    
    15    7    8 1    
    16    7   56 1    
    17    7   57 1    
    18    8    9 1    
    19    8   58 1    
    20    8   59 1    
    21    9   60 1    
    22    9   10 1    
    23    9   61 1    
    24   10   11 1    
    25   10   12 1    
    26   10   52 1    
    27   12   14 am   BACKBONE|DICT|INTERRES
    28   12   13 2    
    29   14   15 1    
    30   14   62 1    
    31   15   16 1    
    32   15   17 1    
    33   15   25 1    
    34   17   64 1    
    35   17   18 1    
    36   17   63 1    
    37   18   65 1    
    38   18   66 1    
    39   18   19 1    
    40   19   20 1    
    41   19   67 1    
    42   19   68 1    
    43   20   22 am   BACKBONE|DICT|INTERRES
    44   20   21 1    
    45   22   24 1    
    46   22   23 2    
    47   24   69 1    
    48   24   70 1    
    49   24   71 1    
    50   25   26 2    
    51   25   27 am   BACKBONE|DICT|INTERRES
    52   27   28 1    
    53   27   72 1    
    54   28   38 1    
    55   28   30 1    
    56   28   29 1    
    57   30   31 1    
    58   30   74 1    
    59   30   73 1    
    60   31   32 1    
    61   31   75 1    
    62   31   76 1    
    63   32   78 1    
    64   32   77 1    
    65   32   33 1    
    66   33   34 1    
    67   33   35 am   BACKBONE|DICT|INTERRES
    68   35   37 1    
    69   35   36 2    
    70   37   81 1    
    71   37   80 1    
    72   37   79 1    
    73   38   39 2    
    74   38   40 am   BACKBONE|DICT|INTERRES
    75   40   41 1    
    76   40   82 1    
    77   41   84 1    
    78   41   42 1    
    79   41   83 1    
    80   42   43 2    
    81   42   44 am   BACKBONE|DICT|INTERRES
    82   44   45 1    
    83   44   85 1    
    84   45   86 1    
    85   45   46 1    
    86   45   87 1    
    87   46   47 2    
    88   46   48 am   BACKBONE|DICT|INTERRES
    89   48   49 1    
    90   48   88 1    
    91   49   90 1    
    92   49   50 1    
    93   49   89 1    
    94   50   51 2    
    95   50   52 am   BACKBONE|DICT|INTERRES
    96   52   91 1    
@<TRIPOS>SUBSTRUCTURE
     1 UNK         1 GROUP             0       ****    0 ROOT    
@<TRIPOS>MOLECULE
128_c1
129   134    1
SMALL
USER_CHARGES


@<TRIPOS>ATOM
      1 Fe1         0.0572    3.5376   -0.4943 Fe        1 UNK         0.0000 
      2 O2          2.7326    4.3274   -8.4678 O.2       1 UNK         0.0000 
      3 C3          3.4343    3.8188   -7.6023 C.2       1 UNK         0.0000 
      4 O4          4.1816    2.6972   -7.7548 O.3       1 UNK         0.0000 
      5 C5          3.6340    4.4412   -6.2273 C.3       1 UNK         0.0000 
      6 C6          2.9758    3.6440   -5.1002 C.2       1 UNK         0.0000 
      7 C7          3.7981    2.4651   -4.5737 C.3       1 UNK         0.0000 
      8 C8          1.8023    4.0751   -4.5932 C.2       1 UNK         0.0000 
      9 C9          1.2101    3.6185   -3.3631 C.2       1 UNK         0.0000 
     10 O10         0.9513    4.4386   -2.4618 O.co2     1 UNK         0.0000 
     11 N11         1.0412    2.3045   -3.0488 N.am      1 UNK         0.0000 
     12 O12         0.9996    2.0318   -1.7615 O.co2     1 UNK         0.0000 
     13 C13         0.6388    1.1473   -3.8922 C.3       1 UNK         0.0000 
     14 C14        -0.1615    0.0465   -3.0808 C.3       1 UNK         0.0000 
     15 C15        -0.6193   -1.1770   -3.8543 C.3       1 UNK         0.0000 
     16 C16        -1.3040   -2.3433   -3.0626 C.3       1 UNK         0.0000 
     17 H17        -1.6468   -2.8785   -3.9505 H         1 UNK         0.0000 
     18 C18        -0.4052   -3.4716   -2.4834 C.2       1 UNK         0.0000 
     19 O19         0.6934   -3.1915   -2.0164 O.2       1 UNK         0.0000 
     20 N20        -0.8863   -4.7222   -2.6515 N.am      1 UNK         0.0000 
     21 C21        -0.2526   -6.0481   -2.5196 C.3       1 UNK         0.0000 
     22 H22        -0.6131   -6.5728   -3.4051 H         1 UNK         0.0000 
     23 C23         1.2977   -6.0652   -2.6665 C.3       1 UNK         0.0000 
     24 O24         2.0042   -5.8269   -1.4600 O.3       1 UNK         0.0000 
     25 C25        -0.8951   -6.8482   -1.3788 C.2       1 UNK         0.0000 
     26 O26        -2.1203   -6.9438   -1.3463 O.2       1 UNK         0.0000 
     27 N27        -0.0824   -7.4643   -0.5215 N.am      1 UNK         0.0000 
     28 C28        -0.4902   -8.0387    0.7574 C.3       1 UNK         0.0000 
     29 H29        -1.5526   -8.2884    0.7449 H         1 UNK         0.0000 
     30 C30         0.3022   -9.3485    0.9461 C.3       1 UNK         0.0000 
     31 O31         1.7040   -9.1247    0.8378 O.3       1 UNK         0.0000 
     32 C32        -0.2861   -7.0246    1.9123 C.2       1 UNK         0.0000 
     33 O33        -0.4526   -7.3935    3.0755 O.2       1 UNK         0.0000 
     34 N34         0.0969   -5.7856    1.5657 N.am      1 UNK         0.0000 
     35 C35         0.2752   -4.6724    2.4841 C.3       1 UNK         0.0000 
     36 C36        -1.0025   -3.8200    2.5214 C.2       1 UNK         0.0000 
     37 O37        -2.0953   -4.3565    2.6732 O.2       1 UNK         0.0000 
     38 N38        -0.8458   -2.4845    2.4974 N.am      1 UNK         0.0000 
     39 C39        -1.8245   -1.5581    3.0773 C.3       1 UNK         0.0000 
     40 H40        -2.1331   -2.0948    3.9783 H         1 UNK         0.0000 
     41 C41        -1.1969   -0.2894    3.7154 C.3       1 UNK         0.0000 
     42 C42        -0.5152    0.6628    2.7425 C.3       1 UNK         0.0000 
     43 C43         0.2560    1.8807    3.3767 C.3       1 UNK         0.0000 
     44 N44         0.7333    2.8618    2.3554 N.am      1 UNK         0.0000 
     45 O45         0.8536    2.3385    1.1613 O.co2     1 UNK         0.0000 
     46 C46         0.8667    4.2093    2.4307 C.2       1 UNK         0.0000 
     47 O47         0.7069    4.8533    1.3614 O.co2     1 UNK         0.0000 
     48 C48         1.4479    4.7501    3.6266 C.2       1 UNK         0.0000 
     49 C49         1.4847    6.0579    3.9708 C.2       1 UNK         0.0000 
     50 C50         2.4305    6.4600    5.1107 C.3       1 UNK         0.0000 
     51 C51         0.6828    7.1754    3.2522 C.3       1 UNK         0.0000 
     52 C52         0.5961    8.5365    3.9570 C.2       1 UNK         0.0000 
     53 O53         0.0099    8.4708    5.1758 O.3       1 UNK         0.0000 
     54 O54         0.9821    9.5810    3.4454 O.2       1 UNK         0.0000 
     55 C55        -3.2109   -1.4026    2.3800 C.2       1 UNK         0.0000 
     56 O56        -4.1923   -1.4166    3.1222 O.2       1 UNK         0.0000 
     57 N57        -3.4446   -1.3148    1.0533 N.am      1 UNK         0.0000 
     58 C58        -2.7599   -0.9194   -0.1878 C.3       1 UNK         0.0000 
     59 H59        -1.6814   -0.8570   -0.0515 H         1 UNK         0.0000 
     60 C60        -3.2079   -1.9685   -1.2530 C.2       1 UNK         0.0000 
     61 O61        -4.3108   -2.4924   -1.0860 O.2       1 UNK         0.0000 
     62 N62        -2.6449   -2.1823   -2.4631 N.am      1 UNK         0.0000 
     63 C63        -3.4046    0.4282   -0.6891 C.3       1 UNK         0.0000 
     64 C64        -3.8269    1.4987    0.3529 C.3       1 UNK         0.0000 
     65 C65        -3.8749    2.9784   -0.1941 C.3       1 UNK         0.0000 
     66 N66        -2.5850    3.6117   -0.5650 N.am      1 UNK         0.0000 
     67 O67        -1.5325    2.8293   -0.3962 O.co2     1 UNK         0.0000 
     68 C68        -2.3842    4.9353   -0.8384 C.2       1 UNK         0.0000 
     69 O69        -1.1803    5.2280   -0.8881 O.co2     1 UNK         0.0000 
     70 C70        -3.4963    5.8534   -1.0410 C.2       1 UNK         0.0000 
     71 C71        -3.4374    7.1215   -1.5576 C.2       1 UNK         0.0000 
     72 C72        -2.1576    7.8374   -2.0422 C.3       1 UNK         0.0000 
     73 C73        -4.7477    7.9276   -1.7141 C.3       1 UNK         0.0000 
     74 C74        -4.6464    9.3074   -2.4139 C.2       1 UNK         0.0000 
     75 O75        -4.5106    9.4612   -3.6269 O.2       1 UNK         0.0000 
     76 O76        -4.7040   10.3412   -1.5524 O.3       1 UNK         0.0000 
     77 H77         3.2547    5.4619   -6.2507 H         1 UNK         0.0000 
     78 H78         4.6953    4.5569   -6.0183 H         1 UNK         0.0000 
     79 H79         3.5042    2.1520   -3.5657 H         1 UNK         0.0000 
     80 H80         4.8613    2.7096   -4.5325 H         1 UNK         0.0000 
     81 H81         3.6514    1.6008   -5.2322 H         1 UNK         0.0000 
     82 H82         1.2593    4.8976   -5.0279 H         1 UNK         0.0000 
     83 H83         1.5326    0.6794   -4.3211 H         1 UNK         0.0000 
     84 H84         0.0771    1.4954   -4.7676 H         1 UNK         0.0000 
     85 H85        -1.0223    0.5359   -2.6268 H         1 UNK         0.0000 
     86 H86         0.4843   -0.3284   -2.2770 H         1 UNK         0.0000 
     87 H87        -1.2751   -0.8569   -4.6682 H         1 UNK         0.0000 
     88 H88         0.2828   -1.5908   -4.3202 H         1 UNK         0.0000 
     89 H89        -1.8658   -4.8031   -2.8862 H         1 UNK         0.0000 
     90 H90         1.6321   -5.3916   -3.4561 H         1 UNK         0.0000 
     91 H91         1.5902   -7.0620   -3.0066 H         1 UNK         0.0000 
     92 H92         2.8057   -5.3291   -1.6522 H         1 UNK         0.0000 
     93 H93         0.9203   -7.3083   -0.6058 H         1 UNK         0.0000 
     94 H94         0.0067  -10.0757    0.1877 H         1 UNK         0.0000 
     95 H95         0.0677   -9.8086    1.9098 H         1 UNK         0.0000 
     96 H96         2.1670   -9.8406    1.2824 H         1 UNK         0.0000 
     97 H97         0.2134   -5.5969    0.5812 H         1 UNK         0.0000 
     98 H98         0.4698   -5.0401    3.4927 H         1 UNK         0.0000 
     99 H99         1.1403   -4.0810    2.1915 H         1 UNK         0.0000 
    100 H100        0.0600   -2.0917    2.2966 H         1 UNK         0.0000 
    101 H101       -0.4785   -0.6101    4.4770 H         1 UNK         0.0000 
    102 H102       -1.9811    0.2556    4.2415 H         1 UNK         0.0000 
    103 H103        0.1926    0.0793    2.1437 H         1 UNK         0.0000 
    104 H104       -1.2650    1.0591    2.0604 H         1 UNK         0.0000 
    105 H105       -0.3532    2.3638    4.1499 H         1 UNK         0.0000 
    106 H106        1.1090    1.4918    3.9434 H         1 UNK         0.0000 
    107 H107        1.9454    4.0119    4.2192 H         1 UNK         0.0000 
    108 H108        3.0763    5.6262    5.3914 H         1 UNK         0.0000 
    109 H109        3.0874    7.2610    4.7655 H         1 UNK         0.0000 
    110 H110        1.8916    6.7835    6.0005 H         1 UNK         0.0000 
    111 H111        1.1176    7.3247    2.2689 H         1 UNK         0.0000 
    112 H112       -0.3312    6.8259    3.0857 H         1 UNK         0.0000 
    113 H113       -4.4058   -1.5301    0.8295 H         1 UNK         0.0000 
    114 H114       -3.3211   -2.6777   -3.0290 H         1 UNK         0.0000 
    115 H115       -4.3220    0.2213   -1.2306 H         1 UNK         0.0000 
    116 H116       -2.7550    0.8920   -1.4266 H         1 UNK         0.0000 
    117 H117       -4.8205    1.2374    0.7192 H         1 UNK         0.0000 
    118 H118       -3.2161    1.4491    1.2552 H         1 UNK         0.0000 
    119 H119       -4.5009    2.9744   -1.0851 H         1 UNK         0.0000 
    120 H120       -4.3857    3.5976    0.5516 H         1 UNK         0.0000 
    121 H121       -2.0167    8.7560   -1.4732 H         1 UNK         0.0000 
    122 H122       -1.2168    7.3104   -1.9548 H         1 UNK         0.0000 
    123 H123       -2.2214    8.0993   -3.1029 H         1 UNK         0.0000 
    124 H124       -5.2100    8.0785   -0.7334 H         1 UNK         0.0000 
    125 H125       -5.4480    7.3632   -2.3282 H         1 UNK         0.0000 
    126 H126        4.6436    2.5153   -6.9349 H         1 UNK         0.0000 
    127 H127        0.0470    9.3712    5.5095 H         1 UNK         0.0000 
    128 H128       -4.7508   11.1453   -2.0826 H         1 UNK         0.0000 
    129 H129       -4.4553    5.4454   -0.7671 H         1 UNK         0.0000 
@<TRIPOS>BOND
     1    1   10 nc   
     2    1   12 nc   
     3    1   45 nc   
     4    1   47 nc   
     5    1   67 nc   
     6    1   69 nc   
     7    2    3 2    
     8    3    5 1    
     9    3    4 1    
    10    4  126 1    
    11    5   78 1    
    12    5    6 1    
    13    5   77 1    
    14    6    7 1    
    15    6    8 2    
    16    7   80 1    
    17    7   79 1    
    18    7   81 1    
    19    8    9 1    
    20    8   82 1    
    21    9   11 am   BACKBONE|DICT|INTERRES
    22    9   10 2    
    23   11   12 1    
    24   11   13 1    
    25   13   14 1    
    26   13   83 1    
    27   13   84 1    
    28   14   85 1    
    29   14   86 1    
    30   14   15 1    
    31   15   16 1    
    32   15   87 1    
    33   15   88 1    
    34   16   17 1    
    35   16   18 1    
    36   16   62 1    
    37   18   19 2    
    38   18   20 am   BACKBONE|DICT|INTERRES
    39   20   21 1    
    40   20   89 1    
    41   21   22 1    
    42   21   25 1    
    43   21   23 1    
    44   23   24 1    
    45   23   90 1    
    46   23   91 1    
    47   24   92 1    
    48   25   26 2    
    49   25   27 am   BACKBONE|DICT|INTERRES
    50   27   28 1    
    51   27   93 1    
    52   28   29 1    
    53   28   30 1    
    54   28   32 1    
    55   30   31 1    
    56   30   95 1    
    57   30   94 1    
    58   31   96 1    
    59   32   33 2    
    60   32   34 am   BACKBONE|DICT|INTERRES
    61   34   35 1    
    62   34   97 1    
    63   35   36 1    
    64   35   98 1    
    65   35   99 1    
    66   36   37 2    
    67   36   38 am   BACKBONE|DICT|INTERRES
    68   38   39 1    
    69   38  100 1    
    70   39   41 1    
    71   39   40 1    
    72   39   55 1    
    73   41  102 1    
    74   41  101 1    
    75   41   42 1    
    76   42   43 1    
    77   42  103 1    
    78   42  104 1    
    79   43  106 1    
    80   43  105 1    
    81   43   44 1    
    82   44   45 1    
    83   44   46 am   BACKBONE|DICT|INTERRES
    84   46   48 1    
    85   46   47 2    
    86   48   49 2    
    87   48  107 1    
    88   49   50 1    
    89   49   51 1    
    90   50  108 1    
    91   50  110 1    
    92   50  109 1    
    93   51  112 1    
    94   51   52 1    
    95   51  111 1    
    96   52   53 1    
    97   52   54 2    
    98   53  127 1    
    99   55   56 2    
   100   55   57 am   BACKBONE|DICT|INTERRES
   101   57   58 1    
   102   57  113 1    
   103   58   59 1    
   104   58   60 1    
   105   58   63 1    
   106   60   61 2    
   107   60   62 am   BACKBONE|DICT|INTERRES
   108   62  114 1    
   109   63   64 1    
   110   63  115 1    
   111   63  116 1    
   112   64  118 1    
   113   64  117 1    
   114   64   65 1    
   115   65  120 1    
   116   65   66 1    
   117   65  119 1    
   118   66   68 am   BACKBONE|DICT|INTERRES
   119   66   67 1    
   120   68   69 2    
   121   68   70 1    
   122   70   71 2    
   123   70  129 1    
   124   71   72 1    
   125   71   73 1    
   126   72  122 1    
   127   72  121 1    
   128   72  123 1    
   129   73  124 1    
   130   73   74 1    
   131   73  125 1    
   132   74   76 1    
   133   74   75 2    
   134   76  128 1    
@<TRIPOS>SUBSTRUCTURE
     1 UNK         1 GROUP             0       ****    0 ROOT    
@<TRIPOS>MOLECULE
129_c1
94   99    1
SMALL
USER_CHARGES


@<TRIPOS>ATOM
      1 Fe1        -0.5251   -4.5903    1.5445 Fe        1 UNK         0.0000 
      2 C2          1.6611   -4.4108    5.2374 C.3       1 UNK         0.0000 
      3 C3          0.6590   -4.2939    4.0876 C.2       1 UNK         0.0000 
      4 O4          0.1833   -5.3332    3.6008 O.co2     1 UNK         0.0000 
      5 N5          0.3017   -3.0861    3.5538 N.am      1 UNK         0.0000 
      6 O6         -0.6716   -2.9021    2.6509 O.co2     1 UNK         0.0000 
      7 C7          1.0742   -1.8376    3.8406 C.3       1 UNK         0.0000 
      8 C8          0.2444   -0.5264    3.9007 C.3       1 UNK         0.0000 
      9 C9         -0.0242    0.1168    2.5131 C.3       1 UNK         0.0000 
     10 C10        -1.4252    0.7813    2.4105 C.3       1 UNK         0.0000 
     11 H11        -2.1695    0.1276    2.8639 H         1 UNK         0.0000 
     12 C12        -1.4772    2.1229    3.1528 C.2       1 UNK         0.0000 
     13 O13        -2.3349    2.3330    4.0036 O.2       1 UNK         0.0000 
     14 N14        -0.6142    3.0368    2.7060 N.am      1 UNK         0.0000 
     15 C15        -0.5977    4.4598    2.9896 C.3       1 UNK         0.0000 
     16 H16        -1.6187    4.8440    3.0466 H         1 UNK         0.0000 
     17 C17         0.1425    4.7351    4.3073 C.3       1 UNK         0.0000 
     18 C18         0.1231    5.0319    1.7665 C.2       1 UNK         0.0000 
     19 O19         1.2660    4.6447    1.5253 O.2       1 UNK         0.0000 
     20 N20        -0.5981    5.7862    0.9350 N.am      1 UNK         0.0000 
     21 C21        -0.2477    5.9402   -0.4737 C.3       1 UNK         0.0000 
     22 C22        -1.2730    5.0772   -1.2132 C.2       1 UNK         0.0000 
     23 O23        -2.4618    5.1608   -0.8989 O.2       1 UNK         0.0000 
     24 N24        -0.8330    4.2702   -2.1811 N.am      1 UNK         0.0000 
     25 C25        -1.6748    3.2967   -2.8643 C.3       1 UNK         0.0000 
     26 C26        -0.8093    2.0465   -3.0151 C.2       1 UNK         0.0000 
     27 O27         0.3210    2.1420   -3.4891 O.2       1 UNK         0.0000 
     28 N28        -1.3422    0.8938   -2.6017 N.am      1 UNK         0.0000 
     29 C29        -0.7638   -0.4417   -2.6860 C.3       1 UNK         0.0000 
     30 H30        -0.4980   -0.5328   -3.7416 H         1 UNK         0.0000 
     31 C31         0.5589   -0.6613   -1.8973 C.3       1 UNK         0.0000 
     32 C32         1.4741   -1.7853   -2.4551 C.3       1 UNK         0.0000 
     33 C33         1.0911   -3.2555   -2.1271 C.3       1 UNK         0.0000 
     34 N34         1.5108   -3.8127   -0.8103 N.am      1 UNK         0.0000 
     35 O35         1.7810   -2.8895    0.1251 O.co2     1 UNK         0.0000 
     36 C36         1.5321   -5.1612   -0.5925 C.2       1 UNK         0.0000 
     37 O37         1.6302   -5.6404    0.5514 O.co2     1 UNK         0.0000 
     38 C38         1.2577   -6.1490   -1.7271 C.3       1 UNK         0.0000 
     39 C39        -1.8708   -1.4975   -2.4334 C.2       1 UNK         0.0000 
     40 O40        -2.2484   -2.1268   -3.4153 O.2       1 UNK         0.0000 
     41 N41        -2.4298   -1.7651   -1.2297 N.am      1 UNK         0.0000 
     42 C42        -2.3049   -1.1904    0.1258 C.3       1 UNK         0.0000 
     43 H43        -1.3042   -1.4555    0.4463 H         1 UNK         0.0000 
     44 C44        -2.4847    0.3464    0.1497 C.2       1 UNK         0.0000 
     45 O45        -3.2340    0.8608   -0.6794 O.2       1 UNK         0.0000 
     46 N46        -1.8833    1.1146    1.0598 N.am      1 UNK         0.0000 
     47 C47        -3.3443   -1.7871    1.1299 C.3       1 UNK         0.0000 
     48 C48        -4.0953   -3.1018    0.7936 C.3       1 UNK         0.0000 
     49 C49        -3.5408   -4.4484    1.3602 C.3       1 UNK         0.0000 
     50 N50        -2.6173   -5.2808    0.5281 N.am      1 UNK         0.0000 
     51 O51        -2.6693   -4.9457   -0.7696 O.co2     1 UNK         0.0000 
     52 C52        -2.5686   -6.5868    0.9361 C.2       1 UNK         0.0000 
     53 O53        -2.1829   -6.8438    2.0775 O.co2     1 UNK         0.0000 
     54 C54        -2.9786   -7.7304    0.0088 C.3       1 UNK         0.0000 
     55 H55         1.3283   -3.8205    6.0915 H         1 UNK         0.0000 
     56 H56         2.6603   -4.0806    4.9479 H         1 UNK         0.0000 
     57 H57         1.7351   -5.4464    5.5750 H         1 UNK         0.0000 
     58 H58         1.8444   -1.7215    3.0709 H         1 UNK         0.0000 
     59 H59         1.6542   -1.8994    4.7621 H         1 UNK         0.0000 
     60 H60        -0.6887   -0.7412    4.4212 H         1 UNK         0.0000 
     61 H61         0.7560    0.2097    4.5219 H         1 UNK         0.0000 
     62 H62         0.1111   -0.6228    1.7297 H         1 UNK         0.0000 
     63 H63         0.7646    0.8414    2.3018 H         1 UNK         0.0000 
     64 H64         0.0771    2.7704    2.0157 H         1 UNK         0.0000 
     65 H65         0.1941    5.8055    4.5045 H         1 UNK         0.0000 
     66 H66        -0.3718    4.2727    5.1505 H         1 UNK         0.0000 
     67 H67         1.1643    4.3539    4.2866 H         1 UNK         0.0000 
     68 H68        -1.5815    5.9109    1.1327 H         1 UNK         0.0000 
     69 H69         0.7729    5.6286   -0.7064 H         1 UNK         0.0000 
     70 H70        -0.3571    6.9825   -0.7730 H         1 UNK         0.0000 
     71 H71         0.1522    4.2027   -2.4035 H         1 UNK         0.0000 
     72 H72        -2.5922    3.0725   -2.3159 H         1 UNK         0.0000 
     73 H73        -1.9571    3.6742   -3.8478 H         1 UNK         0.0000 
     74 H74        -2.2646    0.9105   -2.1687 H         1 UNK         0.0000 
     75 H75         0.3814   -0.8009   -0.8337 H         1 UNK         0.0000 
     76 H76         1.1459    0.2556   -1.9513 H         1 UNK         0.0000 
     77 H77         2.4939   -1.6152   -2.1110 H         1 UNK         0.0000 
     78 H78         1.5208   -1.6672   -3.5387 H         1 UNK         0.0000 
     79 H79         0.0128   -3.3756   -2.1998 H         1 UNK         0.0000 
     80 H80         1.4800   -3.8607   -2.9457 H         1 UNK         0.0000 
     81 H81         2.1577   -6.3083   -2.3259 H         1 UNK         0.0000 
     82 H82         0.9565   -7.1148   -1.3173 H         1 UNK         0.0000 
     83 H83         0.4510   -5.8245   -2.3882 H         1 UNK         0.0000 
     84 H84        -3.0653   -2.5544   -1.2787 H         1 UNK         0.0000 
     85 H85        -2.0623    2.1035    0.9533 H         1 UNK         0.0000 
     86 H86        -2.9002   -1.8632    2.1203 H         1 UNK         0.0000 
     87 H87        -4.1319   -1.0444    1.2902 H         1 UNK         0.0000 
     88 H88        -4.3618   -3.1700   -0.2647 H         1 UNK         0.0000 
     89 H89        -5.0716   -2.9851    1.2710 H         1 UNK         0.0000 
     90 H90        -4.4517   -5.0336    1.5348 H         1 UNK         0.0000 
     91 H91        -3.1534   -4.2962    2.3670 H         1 UNK         0.0000 
     92 H92        -2.7471   -7.5320   -1.0349 H         1 UNK         0.0000 
     93 H93        -2.5032   -8.6655    0.2910 H         1 UNK         0.0000 
     94 H94        -4.0559   -7.8685    0.0786 H         1 UNK         0.0000 
@<TRIPOS>BOND
     1    1    4 nc   
     2    1    6 nc   
     3    1   37 nc   
     4    1   53 nc   
     5    1   35 nc   
     6    1   51 nc   
     7    2   57 1    
     8    2   56 1    
     9    2   55 1    
    10    2    3 1    
    11    3    4 2    
    12    3    5 am   BACKBONE|DICT|INTERRES
    13    5    7 1    
    14    5    6 1    
    15    7   59 1    
    16    7    8 1    
    17    7   58 1    
    18    8    9 1    
    19    8   61 1    
    20    8   60 1    
    21    9   63 1    
    22    9   10 1    
    23    9   62 1    
    24   10   11 1    
    25   10   12 1    
    26   10   46 1    
    27   12   13 2    
    28   12   14 am   BACKBONE|DICT|INTERRES
    29   14   15 1    
    30   14   64 1    
    31   15   16 1    
    32   15   17 1    
    33   15   18 1    
    34   17   65 1    
    35   17   66 1    
    36   17   67 1    
    37   18   19 2    
    38   18   20 am   BACKBONE|DICT|INTERRES
    39   20   68 1    
    40   20   21 1    
    41   21   22 1    
    42   21   69 1    
    43   21   70 1    
    44   22   23 2    
    45   22   24 am   BACKBONE|DICT|INTERRES
    46   24   25 1    
    47   24   71 1    
    48   25   26 1    
    49   25   72 1    
    50   25   73 1    
    51   26   28 am   BACKBONE|DICT|INTERRES
    52   26   27 2    
    53   28   74 1    
    54   28   29 1    
    55   29   39 1    
    56   29   31 1    
    57   29   30 1    
    58   31   75 1    
    59   31   32 1    
    60   31   76 1    
    61   32   77 1    
    62   32   33 1    
    63   32   78 1    
    64   33   34 1    
    65   33   79 1    
    66   33   80 1    
    67   34   36 am   BACKBONE|DICT|INTERRES
    68   34   35 1    
    69   36   37 2    
    70   36   38 1    
    71   38   82 1    
    72   38   81 1    
    73   38   83 1    
    74   39   41 am   BACKBONE|DICT|INTERRES
    75   39   40 2    
    76   41   42 1    
    77   41   84 1    
    78   42   43 1    
    79   42   44 1    
    80   42   47 1    
    81   44   46 am   BACKBONE|DICT|INTERRES
    82   44   45 2    
    83   46   85 1    
    84   47   86 1    
    85   47   48 1    
    86   47   87 1    
    87   48   49 1    
    88   48   89 1    
    89   48   88 1    
    90   49   90 1    
    91   49   50 1    
    92   49   91 1    
    93   50   52 am   BACKBONE|DICT|INTERRES
    94   50   51 1    
    95   52   53 2    
    96   52   54 1    
    97   54   93 1    
    98   54   94 1    
    99   54   92 1    
@<TRIPOS>SUBSTRUCTURE
     1 UNK         1 GROUP             0       ****    0 ROOT    
@<TRIPOS>MOLECULE
130_c1
101   106    1
SMALL
USER_CHARGES


@<TRIPOS>ATOM
      1 Fe1        -1.7132   -4.7668    0.2186 Fe        1 UNK         0.0000 
      2 O2         -0.6261   -6.6966    1.6541 O.co2     1 UNK         0.0000 
      3 C3          0.7689   -6.5732    1.6010 C.3       1 UNK         0.0000 
      4 C4          1.4668   -7.7374    0.8880 C.3       1 UNK         0.0000 
      5 N5          1.1617   -5.2260    1.0936 N.3       1 UNK         0.0000 
      6 O6          0.6887   -4.9932   -0.2468 O.co2     1 UNK         0.0000 
      7 C7          2.6217   -4.9836    1.0661 C.3       1 UNK         0.0000 
      8 C8          2.9735   -3.4902    1.2251 C.3       1 UNK         0.0000 
      9 C9          2.5378   -2.5824    0.0550 C.3       1 UNK         0.0000 
     10 C10         3.0246   -1.1236    0.1667 C.3       1 UNK         0.0000 
     11 H11         4.0262   -1.1992    0.5919 H         1 UNK         0.0000 
     12 N12         3.3720   -0.4363   -1.0805 N.am      1 UNK         0.0000 
     13 C13         2.8150   -0.1392   -2.2669 C.2       1 UNK         0.0000 
     14 O14         3.5329    0.4631   -3.0693 O.2       1 UNK         0.0000 
     15 C15         1.3643   -0.4342   -2.7539 C.3       1 UNK         0.0000 
     16 H16         1.5963   -0.6620   -3.7948 H         1 UNK         0.0000 
     17 C17         0.5890   -1.7051   -2.3333 C.3       1 UNK         0.0000 
     18 C18        -0.6013   -1.9875   -3.2878 C.3       1 UNK         0.0000 
     19 C19        -1.0658   -3.4597   -3.4881 C.3       1 UNK         0.0000 
     20 N20        -1.6280   -4.1929   -2.3246 N.3       1 UNK         0.0000 
     21 O21        -2.6601   -3.3463   -1.8227 O.co2     1 UNK         0.0000 
     22 C22        -2.1782   -5.5440   -2.6529 C.3       1 UNK         0.0000 
     23 O23        -2.6049   -6.1901   -1.4797 O.co2     1 UNK         0.0000 
     24 C24        -3.2836   -5.5039   -3.7188 C.3       1 UNK         0.0000 
     25 N25         0.4742    0.7275   -2.9139 N.am      1 UNK         0.0000 
     26 C26         0.5475    1.9461   -2.3586 C.2       1 UNK         0.0000 
     27 O27         1.4650    2.3274   -1.6212 O.2       1 UNK         0.0000 
     28 C28        -0.5527    2.9424   -2.7631 C.3       1 UNK         0.0000 
     29 N29        -0.0916    4.2192   -2.2257 N.am      1 UNK         0.0000 
     30 C30        -0.6073    4.7709   -1.1312 C.2       1 UNK         0.0000 
     31 O31        -1.7895    4.6878   -0.7942 O.2       1 UNK         0.0000 
     32 C32         0.4150    5.4615   -0.2162 C.3       1 UNK         0.0000 
     33 H33         1.3922    5.3597   -0.6965 H         1 UNK         0.0000 
     34 C34         0.1775    6.9730    0.0267 C.3       1 UNK         0.0000 
     35 O35        -0.9371    7.2682    0.8584 O.3       1 UNK         0.0000 
     36 N36         0.4429    4.7435    1.0476 N.am      1 UNK         0.0000 
     37 C37         1.5402    4.4078    1.7314 C.2       1 UNK         0.0000 
     38 O38         2.6853    4.6899    1.3707 O.2       1 UNK         0.0000 
     39 C39         1.3222    3.7013    3.0787 C.3       1 UNK         0.0000 
     40 H40         2.1335    4.0555    3.7149 H         1 UNK         0.0000 
     41 C41        -0.0224    4.1012    3.7422 C.3       1 UNK         0.0000 
     42 N42         1.4778    2.2436    2.9522 N.am      1 UNK         0.0000 
     43 C43         1.4116    1.3450    3.9457 C.2       1 UNK         0.0000 
     44 O44         1.0950    1.6585    5.0992 O.2       1 UNK         0.0000 
     45 C45         1.9017   -0.1119    3.7218 C.3       1 UNK         0.0000 
     46 H46         2.7440   -0.1368    4.4185 H         1 UNK         0.0000 
     47 N47         2.5556   -0.4906    2.4555 N.am      1 UNK         0.0000 
     48 C48         2.2353   -0.2555    1.1692 C.2       1 UNK         0.0000 
     49 O49         1.4504    0.6017    0.7889 O.2       1 UNK         0.0000 
     50 C50         0.9411   -1.2153    4.2540 C.3       1 UNK         0.0000 
     51 C51        -0.1530   -1.6097    3.2553 C.3       1 UNK         0.0000 
     52 C52        -0.9783   -2.8817    3.5975 C.3       1 UNK         0.0000 
     53 N53        -2.1936   -3.0190    2.7499 N.3       1 UNK         0.0000 
     54 O54        -1.7792   -2.8007    1.3806 O.co2     1 UNK         0.0000 
     55 C55        -3.0760   -4.2301    2.9514 C.3       1 UNK         0.0000 
     56 O56        -3.2834   -5.0180    1.8047 O.co2     1 UNK         0.0000 
     57 C57        -4.4129   -3.7394    3.4972 C.3       1 UNK         0.0000 
     58 H58         1.0744   -8.6924    1.2355 H         1 UNK         0.0000 
     59 H59         1.2935   -7.6930   -0.1815 H         1 UNK         0.0000 
     60 H60         2.5469   -7.7516    1.0439 H         1 UNK         0.0000 
     61 H61         3.0321   -5.3594    0.1224 H         1 UNK         0.0000 
     62 H62         3.1856   -5.5169    1.8456 H         1 UNK         0.0000 
     63 H63         4.0504   -3.4348    1.3451 H         1 UNK         0.0000 
     64 H64         2.5323   -3.1368    2.1501 H         1 UNK         0.0000 
     65 H65         1.4494   -2.5964    0.0321 H         1 UNK         0.0000 
     66 H66         2.8800   -3.0216   -0.8837 H         1 UNK         0.0000 
     67 H67         4.2639    0.0106   -0.9982 H         1 UNK         0.0000 
     68 H68         1.2327   -2.5836   -2.3054 H         1 UNK         0.0000 
     69 H69         0.1713   -1.5645   -1.3347 H         1 UNK         0.0000 
     70 H70        -1.4610   -1.3745   -3.0127 H         1 UNK         0.0000 
     71 H71        -0.3364   -1.6431   -4.2889 H         1 UNK         0.0000 
     72 H72        -1.8113   -3.3851   -4.2804 H         1 UNK         0.0000 
     73 H73        -0.2232   -4.0196   -3.8894 H         1 UNK         0.0000 
     74 H74        -3.7813   -6.4704   -3.7793 H         1 UNK         0.0000 
     75 H75        -4.0536   -4.7708   -3.4719 H         1 UNK         0.0000 
     76 H76        -2.8916   -5.2618   -4.7096 H         1 UNK         0.0000 
     77 H77        -0.3239    0.5094   -3.4911 H         1 UNK         0.0000 
     78 H78        -1.5199    2.6304   -2.3662 H         1 UNK         0.0000 
     79 H79        -0.6297    3.0051   -3.8488 H         1 UNK         0.0000 
     80 H80         0.9187    4.2687   -2.2706 H         1 UNK         0.0000 
     81 H81         0.0300    7.4749   -0.9313 H         1 UNK         0.0000 
     82 H82         1.0653    7.4250    0.4714 H         1 UNK         0.0000 
     83 H83        -1.7277    7.3412    0.3136 H         1 UNK         0.0000 
     84 H84        -0.4648    4.4700    1.3975 H         1 UNK         0.0000 
     85 H85        -0.2390    5.1640    3.6259 H         1 UNK         0.0000 
     86 H86        -0.0089    3.9149    4.8149 H         1 UNK         0.0000 
     87 H87        -0.8590    3.5424    3.3225 H         1 UNK         0.0000 
     88 H88         1.6386    1.8805    2.0050 H         1 UNK         0.0000 
     89 H89         3.1951   -1.2581    2.5622 H         1 UNK         0.0000 
     90 H90         1.5259   -2.0996    4.5037 H         1 UNK         0.0000 
     91 H91         0.4701   -0.9007    5.1852 H         1 UNK         0.0000 
     92 H92        -0.7952   -0.7834    2.9745 H         1 UNK         0.0000 
     93 H93         0.3571   -1.8890    2.3399 H         1 UNK         0.0000 
     94 H94        -0.3335   -3.7564    3.4525 H         1 UNK         0.0000 
     95 H95        -1.2206   -2.8860    4.6664 H         1 UNK         0.0000 
     96 H96        -4.2987   -3.1672    4.4063 H         1 UNK         0.0000 
     97 H97        -5.0736   -4.5732    3.6853 H         1 UNK         0.0000 
     98 H98        -4.8875   -3.1161    2.7546 H         1 UNK         0.0000 
     99 H99         1.1673   -6.6047    2.6164 H         1 UNK         0.0000 
    100 H100       -1.3347   -6.0558   -3.1247 H         1 UNK         0.0000 
    101 H101       -2.6403   -4.8411    3.7593 H         1 UNK         0.0000 
@<TRIPOS>BOND
     1    1    2 nc   
     2    1    6 nc   
     3    1   21 nc   
     4    1   23 nc   
     5    1   54 nc   
     6    1   56 nc   
     7    2    3 1    
     8    3    4 1    
     9    3    5 1    
    10    3   99 1    
    11    4   58 1    
    12    4   60 1    
    13    4   59 1    
    14    5    6 1    
    15    5    7 1    
    16    7    8 1    
    17    7   62 1    
    18    7   61 1    
    19    8   63 1    
    20    8   64 1    
    21    8    9 1    
    22    9   10 1    
    23    9   65 1    
    24    9   66 1    
    25   10   11 1    
    26   10   48 1    
    27   10   12 1    
    28   12   67 1    
    29   12   13 am   BACKBONE|DICT|INTERRES
    30   13   14 2    
    31   13   15 1    
    32   15   16 1    
    33   15   17 1    
    34   15   25 1    
    35   17   69 1    
    36   17   18 1    
    37   17   68 1    
    38   18   70 1    
    39   18   19 1    
    40   18   71 1    
    41   19   20 1    
    42   19   72 1    
    43   19   73 1    
    44   20   22 1    
    45   20   21 1    
    46   22   23 1    
    47   22   24 1    
    48   22  100 1    
    49   24   74 1    
    50   24   75 1    
    51   24   76 1    
    52   25   26 am   BACKBONE|DICT|INTERRES
    53   25   77 1    
    54   26   27 2    
    55   26   28 1    
    56   28   78 1    
    57   28   29 1    
    58   28   79 1    
    59   29   30 am   BACKBONE|DICT|INTERRES
    60   29   80 1    
    61   30   31 2    
    62   30   32 1    
    63   32   33 1    
    64   32   36 1    
    65   32   34 1    
    66   34   35 1    
    67   34   82 1    
    68   34   81 1    
    69   35   83 1    
    70   36   84 1    
    71   36   37 am   BACKBONE|DICT|INTERRES
    72   37   39 1    
    73   37   38 2    
    74   39   40 1    
    75   39   41 1    
    76   39   42 1    
    77   41   85 1    
    78   41   86 1    
    79   41   87 1    
    80   42   43 am   BACKBONE|DICT|INTERRES
    81   42   88 1    
    82   43   45 1    
    83   43   44 2    
    84   45   50 1    
    85   45   46 1    
    86   45   47 1    
    87   47   89 1    
    88   47   48 am   BACKBONE|DICT|INTERRES
    89   48   49 2    
    90   50   90 1    
    91   50   91 1    
    92   50   51 1    
    93   51   52 1    
    94   51   92 1    
    95   51   93 1    
    96   52   94 1    
    97   52   95 1    
    98   52   53 1    
    99   53   55 1    
   100   53   54 1    
   101   55   56 1    
   102   55   57 1    
   103   55  101 1    
   104   57   97 1    
   105   57   96 1    
   106   57   98 1    
@<TRIPOS>SUBSTRUCTURE
     1 UNK         1 GROUP             0       ****    0 ROOT    
@<TRIPOS>MOLECULE
131_c1
95   100    1
SMALL
USER_CHARGES


@<TRIPOS>ATOM
      1 Fe1        -0.8030    5.0875    0.0620 Fe        1 UNK         0.0000 
      2 O2         -1.3982    6.2177    1.7801 O.co2     1 UNK         0.0000 
      3 C3         -1.3269    5.6040    2.8535 C.2       1 UNK         0.0000 
      4 C4         -1.1207    6.3027    4.1870 C.3       1 UNK         0.0000 
      5 N5         -1.4322    4.2657    2.7440 N.am      1 UNK         0.0000 
      6 O6         -1.7588    3.8520    1.5441 O.co2     1 UNK         0.0000 
      7 C7         -0.6630    3.2882    3.5668 C.3       1 UNK         0.0000 
      8 C8         -0.3193    1.9236    2.8739 C.3       1 UNK         0.0000 
      9 C9          0.6624    1.0428    3.6749 C.3       1 UNK         0.0000 
     10 C10         1.1627   -0.3095    3.0637 C.3       1 UNK         0.0000 
     11 H11         1.5548   -0.7646    3.9758 H         1 UNK         0.0000 
     12 N12         2.4353   -0.3439    2.3141 N.am      1 UNK         0.0000 
     13 C13         2.9287   -0.0970    1.0836 C.2       1 UNK         0.0000 
     14 O14         4.1225   -0.3550    0.9163 O.2       1 UNK         0.0000 
     15 C15         0.1222   -1.3668    2.6422 C.2       1 UNK         0.0000 
     16 O16        -0.9493   -1.0399    2.1432 O.2       1 UNK         0.0000 
     17 N17         0.4492   -2.6405    2.9165 N.am      1 UNK         0.0000 
     18 C18        -0.4560   -3.7704    2.7268 C.3       1 UNK         0.0000 
     19 C19         0.2645   -4.8016    1.8706 C.2       1 UNK         0.0000 
     20 O20         1.4240   -5.1178    2.1371 O.2       1 UNK         0.0000 
     21 N21        -0.4286   -5.3552    0.8747 N.am      1 UNK         0.0000 
     22 C22         0.1607   -6.2034   -0.1563 C.3       1 UNK         0.0000 
     23 H23         1.2478   -6.2006   -0.0804 H         1 UNK         0.0000 
     24 C24        -0.3215   -7.6625   -0.0166 C.3       1 UNK         0.0000 
     25 O25         0.3597   -8.5089   -0.9310 O.3       1 UNK         0.0000 
     26 C26        -0.2407   -5.5360   -1.4736 C.2       1 UNK         0.0000 
     27 O27        -1.4080   -5.6162   -1.8590 O.2       1 UNK         0.0000 
     28 N28         0.7173   -4.8342   -2.0864 N.am      1 UNK         0.0000 
     29 C29         0.4700   -3.9359   -3.2102 C.3       1 UNK         0.0000 
     30 C30         0.6334   -2.4961   -2.7034 C.2       1 UNK         0.0000 
     31 O31         0.2015   -2.1622   -1.6011 O.2       1 UNK         0.0000 
     32 N32         1.2463   -1.6484   -3.5366 N.am      1 UNK         0.0000 
     33 C33         1.4565   -0.2178   -3.3372 C.3       1 UNK         0.0000 
     34 H34         1.7116    0.0840   -4.3535 H         1 UNK         0.0000 
     35 C35         0.1807    0.6178   -3.0683 C.3       1 UNK         0.0000 
     36 C36         0.3516    2.1318   -3.3024 C.3       1 UNK         0.0000 
     37 C37        -1.0035    2.8595   -3.5701 C.3       1 UNK         0.0000 
     38 N38        -1.3362    3.9121   -2.5981 N.am      1 UNK         0.0000 
     39 O39        -1.3119    3.5455   -1.3318 O.co2     1 UNK         0.0000 
     40 C40        -1.5130    5.2292   -2.8208 C.2       1 UNK         0.0000 
     41 O41        -1.5951    5.8902   -1.7782 O.co2     1 UNK         0.0000 
     42 C42        -1.5048    5.8468   -4.2241 C.3       1 UNK         0.0000 
     43 C43         2.7985    0.0301   -2.6044 C.2       1 UNK         0.0000 
     44 O44         3.8056   -0.0627   -3.3000 O.2       1 UNK         0.0000 
     45 N45         2.9751    0.2836   -1.3019 N.am      1 UNK         0.0000 
     46 C46         2.1581    0.5375   -0.1096 C.3       1 UNK         0.0000 
     47 H47         1.1675    0.0817   -0.1846 H         1 UNK         0.0000 
     48 C48         2.0423    2.0631    0.1166 C.3       1 UNK         0.0000 
     49 C49         3.0868    3.0112   -0.5555 C.3       1 UNK         0.0000 
     50 C50         3.1415    4.4971   -0.0533 C.3       1 UNK         0.0000 
     51 N51         1.8644    5.2349   -0.0169 N.am      1 UNK         0.0000 
     52 O52         0.8408    4.5923    0.5024 O.co2     1 UNK         0.0000 
     53 C53         1.5136    6.4218   -0.5592 C.2       1 UNK         0.0000 
     54 O54         0.3022    6.6075   -0.3819 O.co2     1 UNK         0.0000 
     55 C55         2.4101    7.3078   -1.4215 C.3       1 UNK         0.0000 
     56 H56        -0.8529    5.6109    4.9794 H         1 UNK         0.0000 
     57 H57        -2.0394    6.8056    4.4786 H         1 UNK         0.0000 
     58 H58        -0.3355    7.0433    4.0851 H         1 UNK         0.0000 
     59 H59        -1.2255    3.0725    4.4731 H         1 UNK         0.0000 
     60 H60         0.2721    3.7332    3.9206 H         1 UNK         0.0000 
     61 H61         0.0975    2.0756    1.8904 H         1 UNK         0.0000 
     62 H62        -1.2545    1.3872    2.7146 H         1 UNK         0.0000 
     63 H63         1.5333    1.6347    3.9562 H         1 UNK         0.0000 
     64 H64         0.1510    0.8011    4.6135 H         1 UNK         0.0000 
     65 H65         3.1538   -0.7706    2.8715 H         1 UNK         0.0000 
     66 H66         1.3800   -2.8709    3.2290 H         1 UNK         0.0000 
     67 H67        -1.4037   -3.4702    2.2840 H         1 UNK         0.0000 
     68 H68        -0.6789   -4.2124    3.6956 H         1 UNK         0.0000 
     69 H69        -1.3391   -4.9849    0.6395 H         1 UNK         0.0000 
     70 H70        -0.1249   -8.0205    0.9938 H         1 UNK         0.0000 
     71 H71        -1.3984   -7.7367   -0.1654 H         1 UNK         0.0000 
     72 H72        -0.0593   -9.3741   -0.9447 H         1 UNK         0.0000 
     73 H73         1.6068   -4.7361   -1.6228 H         1 UNK         0.0000 
     74 H74         1.1611   -4.1637   -4.0245 H         1 UNK         0.0000 
     75 H75        -0.5426   -4.0354   -3.6023 H         1 UNK         0.0000 
     76 H76         1.6731   -2.0014   -4.3830 H         1 UNK         0.0000 
     77 H77        -0.5648    0.2614   -3.7908 H         1 UNK         0.0000 
     78 H78        -0.2431    0.4121   -2.0817 H         1 UNK         0.0000 
     79 H79         1.0382    2.3267   -4.1315 H         1 UNK         0.0000 
     80 H80         0.8447    2.5398   -2.4250 H         1 UNK         0.0000 
     81 H81        -0.9981    3.2679   -4.5801 H         1 UNK         0.0000 
     82 H82        -1.8514    2.1712   -3.5514 H         1 UNK         0.0000 
     83 H83        -1.6573    6.9203   -4.1873 H         1 UNK         0.0000 
     84 H84        -0.5543    5.6669   -4.7251 H         1 UNK         0.0000 
     85 H85        -2.2971    5.4200   -4.8318 H         1 UNK         0.0000 
     86 H86         3.9411    0.2656   -1.0107 H         1 UNK         0.0000 
     87 H87         2.0605    2.2887    1.1866 H         1 UNK         0.0000 
     88 H88         1.0292    2.2905   -0.2206 H         1 UNK         0.0000 
     89 H89         2.9226    3.0233   -1.6291 H         1 UNK         0.0000 
     90 H90         4.0861    2.5950   -0.4097 H         1 UNK         0.0000 
     91 H91         3.8817    5.0600   -0.6233 H         1 UNK         0.0000 
     92 H92         3.5171    4.5017    0.9761 H         1 UNK         0.0000 
     93 H93         2.7519    6.7540   -2.2928 H         1 UNK         0.0000 
     94 H94         3.2598    7.6445   -0.8474 H         1 UNK         0.0000 
     95 H95         1.8818    8.1820   -1.7901 H         1 UNK         0.0000 
@<TRIPOS>BOND
     1    1    2 nc   
     2    1    6 nc   
     3    1   39 nc   
     4    1   41 nc   
     5    1   52 nc   
     6    1   54 nc   
     7    2    3 2    
     8    3    4 1    
     9    3    5 am   BACKBONE|DICT|INTERRES
    10    4   57 1    
    11    4   56 1    
    12    4   58 1    
    13    5    7 1    
    14    5    6 1    
    15    7   60 1    
    16    7   59 1    
    17    7    8 1    
    18    8    9 1    
    19    8   61 1    
    20    8   62 1    
    21    9   63 1    
    22    9   64 1    
    23    9   10 1    
    24   10   11 1    
    25   10   12 1    
    26   10   15 1    
    27   12   65 1    
    28   12   13 am   BACKBONE|DICT|INTERRES
    29   13   14 2    
    30   13   46 1    
    31   15   17 am   BACKBONE|DICT|INTERRES
    32   15   16 2    
    33   17   66 1    
    34   17   18 1    
    35   18   68 1    
    36   18   19 1    
    37   18   67 1    
    38   19   20 2    
    39   19   21 am   BACKBONE|DICT|INTERRES
    40   21   22 1    
    41   21   69 1    
    42   22   24 1    
    43   22   23 1    
    44   22   26 1    
    45   24   70 1    
    46   24   25 1    
    47   24   71 1    
    48   25   72 1    
    49   26   27 2    
    50   26   28 am   BACKBONE|DICT|INTERRES
    51   28   73 1    
    52   28   29 1    
    53   29   30 1    
    54   29   74 1    
    55   29   75 1    
    56   30   31 2    
    57   30   32 am   BACKBONE|DICT|INTERRES
    58   32   33 1    
    59   32   76 1    
    60   33   34 1    
    61   33   35 1    
    62   33   43 1    
    63   35   78 1    
    64   35   36 1    
    65   35   77 1    
    66   36   80 1    
    67   36   37 1    
    68   36   79 1    
    69   37   82 1    
    70   37   38 1    
    71   37   81 1    
    72   38   39 1    
    73   38   40 am   BACKBONE|DICT|INTERRES
    74   40   41 2    
    75   40   42 1    
    76   42   83 1    
    77   42   84 1    
    78   42   85 1    
    79   43   45 am   BACKBONE|DICT|INTERRES
    80   43   44 2    
    81   45   86 1    
    82   45   46 1    
    83   46   47 1    
    84   46   48 1    
    85   48   87 1    
    86   48   49 1    
    87   48   88 1    
    88   49   90 1    
    89   49   50 1    
    90   49   89 1    
    91   50   92 1    
    92   50   51 1    
    93   50   91 1    
    94   51   53 am   BACKBONE|DICT|INTERRES
    95   51   52 1    
    96   53   54 2    
    97   53   55 1    
    98   55   94 1    
    99   55   93 1    
   100   55   95 1    
@<TRIPOS>SUBSTRUCTURE
     1 UNK         1 GROUP             0       ****    0 ROOT    
@<TRIPOS>MOLECULE
153_c1
132   137    1
SMALL
USER_CHARGES


@<TRIPOS>ATOM
      1 Fe1        -0.4197   -3.1239   -0.8180 Fe        1 UNK         0.0000 
      2 O2         -3.8483   -7.5008    4.9849 O.3       1 UNK         0.0000 
      3 C3         -4.9049   -6.6827    4.5062 C.3       1 UNK         0.0000 
      4 C4         -4.4293   -5.2403    4.1959 C.3       1 UNK         0.0000 
      5 C5         -3.4885   -4.9945    3.0044 C.2       1 UNK         0.0000 
      6 C6         -3.0669   -6.2540    2.2376 C.3       1 UNK         0.0000 
      7 C7         -3.1386   -3.7082    2.7184 C.2       1 UNK         0.0000 
      8 C8         -2.2931   -3.2294    1.6256 C.2       1 UNK         0.0000 
      9 O9         -1.7560   -3.9838    0.7979 O.co2     1 UNK         0.0000 
     10 N10        -2.1432   -1.8914    1.3826 N.am      1 UNK         0.0000 
     11 O11        -1.6613   -1.4992    0.2141 O.co2     1 UNK         0.0000 
     12 C12        -2.3892   -0.7442    2.2796 C.3       1 UNK         0.0000 
     13 C13        -1.1964    0.2328    2.5476 C.3       1 UNK         0.0000 
     14 C14        -0.5850    1.0143    1.3384 C.3       1 UNK         0.0000 
     15 C15         0.4953    2.0541    1.7402 C.3       1 UNK         0.0000 
     16 H16         1.1595    1.6234    2.4903 H         1 UNK         0.0000 
     17 C17        -0.1462    3.3176    2.3759 C.2       1 UNK         0.0000 
     18 O18        -1.3599    3.3918    2.5530 O.2       1 UNK         0.0000 
     19 N19         0.6698    4.3471    2.6376 N.am      1 UNK         0.0000 
     20 C20         0.1910    5.6997    2.8912 C.3       1 UNK         0.0000 
     21 H21        -0.8800    5.7864    2.6903 H         1 UNK         0.0000 
     22 C22         0.4335    6.0777    4.3693 C.3       1 UNK         0.0000 
     23 O23        -0.0873    7.3563    4.7049 O.3       1 UNK         0.0000 
     24 C24         0.9476    6.5774    1.8934 C.2       1 UNK         0.0000 
     25 O25         2.1742    6.6714    1.9712 O.2       1 UNK         0.0000 
     26 N26         0.2199    7.1516    0.9337 N.am      1 UNK         0.0000 
     27 C27         0.7262    8.0632   -0.0798 C.3       1 UNK         0.0000 
     28 H28         1.7815    8.2861    0.0915 H         1 UNK         0.0000 
     29 C29        -0.0492    9.3879    0.0839 C.3       1 UNK         0.0000 
     30 O30        -1.4531    9.1795    0.1178 O.3       1 UNK         0.0000 
     31 N31         1.3229    2.5640    0.6413 N.am      1 UNK         0.0000 
     32 C32         2.3699    2.1359   -0.0930 C.2       1 UNK         0.0000 
     33 O33         3.0523    2.9896   -0.6522 O.2       1 UNK         0.0000 
     34 C34         2.7633    0.6544   -0.3658 C.3       1 UNK         0.0000 
     35 H35         3.8461    0.7766   -0.4300 H         1 UNK         0.0000 
     36 C36         2.6758   -0.3700    0.8165 C.3       1 UNK         0.0000 
     37 C37         3.6933   -1.5975    0.9131 C.3       1 UNK         0.0000 
     38 C38         3.6983   -2.8524   -0.0730 C.3       1 UNK         0.0000 
     39 N39         2.4152   -3.5757   -0.2432 N.am      1 UNK         0.0000 
     40 O40         1.4150   -2.7384   -0.1718 O.co2     1 UNK         0.0000 
     41 C41         2.0941   -4.8872   -0.5184 C.2       1 UNK         0.0000 
     42 O42         0.8984   -5.1119   -0.7864 O.co2     1 UNK         0.0000 
     43 C43         2.9602   -6.0345   -0.3486 C.2       1 UNK         0.0000 
     44 C44         4.1861   -6.3293   -0.8416 C.2       1 UNK         0.0000 
     45 C45         5.0603   -5.4169   -1.6898 C.3       1 UNK         0.0000 
     46 C46         4.7246   -7.7276   -0.5475 C.3       1 UNK         0.0000 
     47 C47         6.2003   -8.0354   -0.8247 C.3       1 UNK         0.0000 
     48 O48         6.4440   -9.3675   -0.4177 O.3       1 UNK         0.0000 
     49 N49         2.4831    0.1523   -1.7356 N.am      1 UNK         0.0000 
     50 C50         1.7856    0.6013   -2.8164 C.2       1 UNK         0.0000 
     51 O51         2.1268    0.2218   -3.9330 O.2       1 UNK         0.0000 
     52 C52         0.6081    1.6125   -2.7529 C.3       1 UNK         0.0000 
     53 H53         0.1565    1.5396   -1.7630 H         1 UNK         0.0000 
     54 N54         1.1550    2.9577   -2.9557 N.am      1 UNK         0.0000 
     55 C55         0.6202    4.0758   -2.4451 C.2       1 UNK         0.0000 
     56 O56        -0.3511    4.0527   -1.6894 O.2       1 UNK         0.0000 
     57 C57         1.2686    5.4148   -2.8140 C.3       1 UNK         0.0000 
     58 N58         1.2782    6.2392   -1.6082 N.am      1 UNK         0.0000 
     59 C59         0.6542    7.4172   -1.4783 C.2       1 UNK         0.0000 
     60 O60         0.0814    7.9912   -2.4030 O.2       1 UNK         0.0000 
     61 C61        -0.5039    1.3857   -3.8419 C.3       1 UNK         0.0000 
     62 C62        -1.4860    0.1791   -3.6933 C.3       1 UNK         0.0000 
     63 C63        -1.0315   -1.1892   -4.3219 C.3       1 UNK         0.0000 
     64 N64        -0.9929   -2.3033   -3.3493 N.am      1 UNK         0.0000 
     65 O65        -0.2676   -1.9632   -2.3144 O.co2     1 UNK         0.0000 
     66 C66        -1.5841   -3.5381   -3.3611 C.2       1 UNK         0.0000 
     67 O67        -1.4049   -4.1852   -2.3213 O.co2     1 UNK         0.0000 
     68 C68        -2.3090   -4.0376   -4.5144 C.2       1 UNK         0.0000 
     69 C69        -2.8673   -5.2703   -4.6460 C.2       1 UNK         0.0000 
     70 C70        -2.8633   -6.4121   -3.6103 C.3       1 UNK         0.0000 
     71 C71        -3.5743   -5.5769   -5.9642 C.3       1 UNK         0.0000 
     72 C72        -4.2098   -6.9688   -6.1669 C.3       1 UNK         0.0000 
     73 O73        -3.2265   -7.9829   -6.2849 O.3       1 UNK         0.0000 
     74 H74        -3.5122   -7.1378    5.8087 H         1 UNK         0.0000 
     75 H75        -5.3554   -7.1557    3.6276 H         1 UNK         0.0000 
     76 H76        -5.6901   -6.6651    5.2701 H         1 UNK         0.0000 
     77 H77        -3.9522   -4.8344    5.0867 H         1 UNK         0.0000 
     78 H78        -5.3243   -4.6364    4.0337 H         1 UNK         0.0000 
     79 H79        -3.9461   -6.7888    1.8787 H         1 UNK         0.0000 
     80 H80        -2.5068   -6.9181    2.8935 H         1 UNK         0.0000 
     81 H81        -2.4421   -6.1024    1.3634 H         1 UNK         0.0000 
     82 H82        -3.1872   -0.1770    1.8007 H         1 UNK         0.0000 
     83 H83        -2.8157   -1.0104    3.2478 H         1 UNK         0.0000 
     84 H84        -0.4157   -0.3194    3.0638 H         1 UNK         0.0000 
     85 H85        -1.5609    0.9583    3.2759 H         1 UNK         0.0000 
     86 H86        -1.3794    1.5187    0.7808 H         1 UNK         0.0000 
     87 H87        -0.1497    0.3280    0.6199 H         1 UNK         0.0000 
     88 H88         1.6611    4.2815    2.4589 H         1 UNK         0.0000 
     89 H89        -0.0380    5.3311    5.0096 H         1 UNK         0.0000 
     90 H90         1.5007    6.0620    4.5925 H         1 UNK         0.0000 
     91 H91         0.1114    7.5448    5.6257 H         1 UNK         0.0000 
     92 H92        -0.7845    7.0260    0.9002 H         1 UNK         0.0000 
     93 H93         0.2517    9.8670    1.0173 H         1 UNK         0.0000 
     94 H94         0.1964   10.0849   -0.7183 H         1 UNK         0.0000 
     95 H95        -1.8765    9.9532   -0.2658 H         1 UNK         0.0000 
     96 H96         1.0916    3.5271    0.4600 H         1 UNK         0.0000 
     97 H97         1.6489   -0.7013    0.9237 H         1 UNK         0.0000 
     98 H98         2.8279    0.2000    1.7350 H         1 UNK         0.0000 
     99 H99         4.7033   -1.1987    0.9375 H         1 UNK         0.0000 
    100 H100        3.5482   -2.0284    1.9034 H         1 UNK         0.0000 
    101 H101        3.9920   -2.4887   -1.0668 H         1 UNK         0.0000 
    102 H102        4.4901   -3.5627    0.2169 H         1 UNK         0.0000 
    103 H103        2.4738   -6.7997    0.2513 H         1 UNK         0.0000 
    104 H104        5.4513   -5.9435   -2.5591 H         1 UNK         0.0000 
    105 H105        5.8991   -5.0532   -1.0915 H         1 UNK         0.0000 
    106 H106        4.5106   -4.5582   -2.0596 H         1 UNK         0.0000 
    107 H107        4.1321   -8.4252   -1.1372 H         1 UNK         0.0000 
    108 H108        4.5133   -7.9838    0.4919 H         1 UNK         0.0000 
    109 H109        6.4341   -7.9453   -1.8881 H         1 UNK         0.0000 
    110 H110        6.8563   -7.3569   -0.2757 H         1 UNK         0.0000 
    111 H111        7.3677   -9.5844   -0.5735 H         1 UNK         0.0000 
    112 H112        3.0987   -0.6019   -1.9883 H         1 UNK         0.0000 
    113 H113        2.0058    2.9923   -3.4958 H         1 UNK         0.0000 
    114 H114        2.2899    5.2723   -3.1650 H         1 UNK         0.0000 
    115 H115        0.7018    5.8808   -3.6247 H         1 UNK         0.0000 
    116 H116        1.6974    5.8306   -0.7877 H         1 UNK         0.0000 
    117 H117       -0.0550    1.3784   -4.8377 H         1 UNK         0.0000 
    118 H118       -1.1287    2.2827   -3.8455 H         1 UNK         0.0000 
    119 H119       -2.4544    0.4446   -4.1353 H         1 UNK         0.0000 
    120 H120       -1.7049    0.0757   -2.6268 H         1 UNK         0.0000 
    121 H121       -0.0096   -1.0853   -4.6945 H         1 UNK         0.0000 
    122 H122       -1.6309   -1.4118   -5.2027 H         1 UNK         0.0000 
    123 H123       -2.3467   -7.2792   -4.0208 H         1 UNK         0.0000 
    124 H124       -3.8878   -6.7002   -3.3851 H         1 UNK         0.0000 
    125 H125       -2.3885   -6.2205   -2.6545 H         1 UNK         0.0000 
    126 H126       -4.3687   -4.8379   -6.0606 H         1 UNK         0.0000 
    127 H127       -2.8809   -5.3799   -6.7838 H         1 UNK         0.0000 
    128 H128       -4.8924   -7.2156   -5.3494 H         1 UNK         0.0000 
    129 H129       -4.8174   -6.9730   -7.0747 H         1 UNK         0.0000 
    130 H130       -2.6037   -7.7421   -6.9756 H         1 UNK         0.0000 
    131 H131       -3.5573   -2.9374    3.3455 H         1 UNK         0.0000 
    132 H132       -2.3838   -3.3469   -5.3398 H         1 UNK         0.0000 
@<TRIPOS>BOND
     1    1    9 nc   
     2    1   11 nc   
     3    1   40 nc   
     4    1   42 nc   
     5    1   65 nc   
     6    1   67 nc   
     7    2   74 1    
     8    2    3 1    
     9    3   76 1    
    10    3    4 1    
    11    3   75 1    
    12    4   77 1    
    13    4    5 1    
    14    4   78 1    
    15    5    7 2    
    16    5    6 1    
    17    6   80 1    
    18    6   79 1    
    19    6   81 1    
    20    7    8 1    
    21    7  131 1    
    22    8    9 2    
    23    8   10 am   BACKBONE|DICT|INTERRES
    24   10   12 1    
    25   10   11 1    
    26   12   13 1    
    27   12   83 1    
    28   12   82 1    
    29   13   84 1    
    30   13   85 1    
    31   13   14 1    
    32   14   15 1    
    33   14   86 1    
    34   14   87 1    
    35   15   17 1    
    36   15   16 1    
    37   15   31 1    
    38   17   19 am   BACKBONE|DICT|INTERRES
    39   17   18 2    
    40   19   88 1    
    41   19   20 1    
    42   20   21 1    
    43   20   22 1    
    44   20   24 1    
    45   22   90 1    
    46   22   23 1    
    47   22   89 1    
    48   23   91 1    
    49   24   25 2    
    50   24   26 am   BACKBONE|DICT|INTERRES
    51   26   27 1    
    52   26   92 1    
    53   27   29 1    
    54   27   28 1    
    55   27   59 1    
    56   29   93 1    
    57   29   30 1    
    58   29   94 1    
    59   30   95 1    
    60   31   32 am   BACKBONE|DICT|INTERRES
    61   31   96 1    
    62   32   33 2    
    63   32   34 1    
    64   34   35 1    
    65   34   36 1    
    66   34   49 1    
    67   36   37 1    
    68   36   98 1    
    69   36   97 1    
    70   37   99 1    
    71   37  100 1    
    72   37   38 1    
    73   38  102 1    
    74   38   39 1    
    75   38  101 1    
    76   39   40 1    
    77   39   41 am   BACKBONE|DICT|INTERRES
    78   41   42 2    
    79   41   43 1    
    80   43  103 1    
    81   43   44 2    
    82   44   46 1    
    83   44   45 1    
    84   45  105 1    
    85   45  104 1    
    86   45  106 1    
    87   46  108 1    
    88   46   47 1    
    89   46  107 1    
    90   47   48 1    
    91   47  110 1    
    92   47  109 1    
    93   48  111 1    
    94   49   50 am   BACKBONE|DICT|INTERRES
    95   49  112 1    
    96   50   52 1    
    97   50   51 2    
    98   52   53 1    
    99   52   54 1    
   100   52   61 1    
   101   54   55 am   BACKBONE|DICT|INTERRES
   102   54  113 1    
   103   55   56 2    
   104   55   57 1    
   105   57   58 1    
   106   57  114 1    
   107   57  115 1    
   108   58   59 am   BACKBONE|DICT|INTERRES
   109   58  116 1    
   110   59   60 2    
   111   61  118 1    
   112   61   62 1    
   113   61  117 1    
   114   62  120 1    
   115   62   63 1    
   116   62  119 1    
   117   63   64 1    
   118   63  121 1    
   119   63  122 1    
   120   64   65 1    
   121   64   66 am   BACKBONE|DICT|INTERRES
   122   66   67 2    
   123   66   68 1    
   124   68   69 2    
   125   68  132 1    
   126   69   70 1    
   127   69   71 1    
   128   70  124 1    
   129   70  125 1    
   130   70  123 1    
   131   71   72 1    
   132   71  126 1    
   133   71  127 1    
   134   72   73 1    
   135   72  128 1    
   136   72  129 1    
   137   73  130 1    
@<TRIPOS>SUBSTRUCTURE
     1 UNK         1 GROUP             0       ****    0 ROOT    
@<TRIPOS>MOLECULE
154_c1
132   137    1
SMALL
USER_CHARGES


@<TRIPOS>ATOM
      1 Fe1         0.3482   -3.1153   -0.1535 Fe        1 UNK         0.0000 
      2 O2         -6.4961   -6.5127   -4.8717 O.3       1 UNK         0.0000 
      3 C3         -5.2426   -6.5540   -4.2230 C.3       1 UNK         0.0000 
      4 C4         -4.8509   -5.1280   -3.7991 C.3       1 UNK         0.0000 
      5 C5         -3.4892   -4.9463   -3.1306 C.2       1 UNK         0.0000 
      6 C6         -2.7228   -6.2543   -2.8401 C.3       1 UNK         0.0000 
      7 C7         -3.0754   -3.6758   -2.8677 C.2       1 UNK         0.0000 
      8 C8         -1.8494   -3.3205   -2.1962 C.2       1 UNK         0.0000 
      9 O9         -1.2383   -4.1264   -1.4685 O.co2     1 UNK         0.0000 
     10 N10        -1.2817   -2.0870   -2.3687 N.am      1 UNK         0.0000 
     11 O11        -0.0390   -1.9500   -2.0062 O.co2     1 UNK         0.0000 
     12 C12        -1.9204   -0.7697   -2.6180 C.3       1 UNK         0.0000 
     13 C13        -0.9588    0.4590   -2.9064 C.3       1 UNK         0.0000 
     14 C14        -0.0634    1.0641   -1.7406 C.3       1 UNK         0.0000 
     15 C15         1.1576    1.8746   -2.2797 C.3       1 UNK         0.0000 
     16 H16         1.7550    1.2168   -2.9143 H         1 UNK         0.0000 
     17 N17         2.1020    2.5464   -1.3612 N.am      1 UNK         0.0000 
     18 C18         2.7972    2.3702   -0.2211 C.2       1 UNK         0.0000 
     19 O19         3.6605    3.2124    0.0076 O.2       1 UNK         0.0000 
     20 C20         0.6549    3.0329   -3.1652 C.2       1 UNK         0.0000 
     21 O21         0.8748    3.0423   -4.3711 O.2       1 UNK         0.0000 
     22 N22         0.0451    4.0234   -2.5089 N.am      1 UNK         0.0000 
     23 C23        -0.4353    5.2846   -3.0527 C.3       1 UNK         0.0000 
     24 H24         0.3568    5.7481   -3.6421 H         1 UNK         0.0000 
     25 C25        -1.6831    5.0674   -3.9489 C.3       1 UNK         0.0000 
     26 O26        -2.0562    6.2517   -4.6341 O.3       1 UNK         0.0000 
     27 C27        -0.7207    6.1138   -1.7929 C.2       1 UNK         0.0000 
     28 O28        -1.6214    5.7284   -1.0479 O.2       1 UNK         0.0000 
     29 N29         0.1400    7.1114   -1.5193 N.am      1 UNK         0.0000 
     30 C30         0.0671    8.0683   -0.4009 C.3       1 UNK         0.0000 
     31 H31         1.0788    8.4556   -0.2802 H         1 UNK         0.0000 
     32 C32        -0.8149    9.2797   -0.8080 C.3       1 UNK         0.0000 
     33 O33        -2.1289    8.9288   -1.2094 O.3       1 UNK         0.0000 
     34 C34        -0.2612    7.4461    0.9802 C.2       1 UNK         0.0000 
     35 O35        -1.1136    7.9576    1.7052 O.2       1 UNK         0.0000 
     36 N36         0.4217    6.3465    1.3205 N.am      1 UNK         0.0000 
     37 C37         0.0238    5.5250    2.4511 C.3       1 UNK         0.0000 
     38 C38         1.1624    4.5600    2.7744 C.2       1 UNK         0.0000 
     39 O39         2.2975    4.9986    2.9315 O.2       1 UNK         0.0000 
     40 N40         0.8267    3.2748    2.9707 N.am      1 UNK         0.0000 
     41 C41         1.6140    2.3531    3.7956 C.3       1 UNK         0.0000 
     42 H42         1.8345    2.9561    4.6812 H         1 UNK         0.0000 
     43 C43         0.7864    1.1706    4.3740 C.3       1 UNK         0.0000 
     44 C44         0.3853    0.1473    3.3094 C.3       1 UNK         0.0000 
     45 C45        -0.3686   -1.1467    3.7280 C.3       1 UNK         0.0000 
     46 N46        -0.5163   -2.1370    2.6251 N.am      1 UNK         0.0000 
     47 O47        -0.3270   -1.6443    1.3950 O.co2     1 UNK         0.0000 
     48 C48        -0.6627   -3.4857    2.7908 C.2       1 UNK         0.0000 
     49 O49        -0.4189   -4.1896    1.8049 O.co2     1 UNK         0.0000 
     50 C50        -1.2372   -4.0249    4.0170 C.2       1 UNK         0.0000 
     51 C51        -1.3082   -5.3436    4.3620 C.2       1 UNK         0.0000 
     52 C52        -2.0422   -5.7621    5.6360 C.3       1 UNK         0.0000 
     53 C53        -0.6949   -6.4856    3.5278 C.3       1 UNK         0.0000 
     54 C54        -0.6269   -7.9123    4.1100 C.3       1 UNK         0.0000 
     55 O55        -1.9082   -8.5163    4.1293 O.3       1 UNK         0.0000 
     56 C56         3.0355    1.9794    3.2901 C.2       1 UNK         0.0000 
     57 O57         3.9426    2.0554    4.1129 O.2       1 UNK         0.0000 
     58 N58         3.3508    1.6008    2.0368 N.am      1 UNK         0.0000 
     59 C59         2.6449    1.2070    0.8040 C.3       1 UNK         0.0000 
     60 H60         1.5871    1.0244    0.9864 H         1 UNK         0.0000 
     61 C61         3.3802   -0.0611    0.2543 C.3       1 UNK         0.0000 
     62 C62         3.6883   -1.2288    1.2899 C.3       1 UNK         0.0000 
     63 C63         4.0379   -2.6757    0.7205 C.3       1 UNK         0.0000 
     64 N64         2.8925   -3.3964    0.1013 N.am      1 UNK         0.0000 
     65 O65         1.9471   -2.5693   -0.2178 O.co2     1 UNK         0.0000 
     66 C66         2.6158   -4.7291   -0.0014 C.2       1 UNK         0.0000 
     67 O67         1.4071   -4.9803   -0.1639 O.co2     1 UNK         0.0000 
     68 C68         3.6525   -5.7441   -0.0100 C.2       1 UNK         0.0000 
     69 C69         3.5326   -6.9645   -0.6095 C.2       1 UNK         0.0000 
     70 C70         4.6618   -7.9785   -0.4447 C.3       1 UNK         0.0000 
     71 C71         2.3114   -7.3881   -1.4695 C.3       1 UNK         0.0000 
     72 C72         2.2775   -8.7308   -2.2293 C.3       1 UNK         0.0000 
     73 O73         3.2610   -8.7791   -3.2458 O.3       1 UNK         0.0000 
     74 H74        -6.7295   -7.3894   -5.1972 H         1 UNK         0.0000 
     75 H75        -4.5045   -6.9786   -4.9064 H         1 UNK         0.0000 
     76 H76        -5.3110   -7.2220   -3.3602 H         1 UNK         0.0000 
     77 H77        -4.8958   -4.4759   -4.6720 H         1 UNK         0.0000 
     78 H78        -5.6055   -4.7570   -3.1056 H         1 UNK         0.0000 
     79 H79        -3.3064   -6.8859   -2.1717 H         1 UNK         0.0000 
     80 H80        -2.5455   -6.8037   -3.7646 H         1 UNK         0.0000 
     81 H81        -1.7373   -6.1654   -2.3892 H         1 UNK         0.0000 
     82 H82        -2.6168   -0.8765   -3.4506 H         1 UNK         0.0000 
     83 H83        -2.5365   -0.5053   -1.7553 H         1 UNK         0.0000 
     84 H84        -0.3136    0.1567   -3.7332 H         1 UNK         0.0000 
     85 H85        -1.5659    1.2634   -3.3256 H         1 UNK         0.0000 
     86 H86        -0.6810    1.6942   -1.0980 H         1 UNK         0.0000 
     87 H87         0.3374    0.2894   -1.0912 H         1 UNK         0.0000 
     88 H88         2.4575    3.3654   -1.8321 H         1 UNK         0.0000 
     89 H89        -0.1158    3.9329   -1.5158 H         1 UNK         0.0000 
     90 H90        -1.4901    4.2993   -4.6987 H         1 UNK         0.0000 
     91 H91        -2.5307    4.7161   -3.3576 H         1 UNK         0.0000 
     92 H92        -2.9729    6.1698   -4.9115 H         1 UNK         0.0000 
     93 H93         0.8860    7.2668   -2.1744 H         1 UNK         0.0000 
     94 H94        -0.8709    9.9981    0.0118 H         1 UNK         0.0000 
     95 H95        -0.3466    9.8056   -1.6404 H         1 UNK         0.0000 
     96 H96        -2.7141    9.6775   -1.0720 H         1 UNK         0.0000 
     97 H97         1.2245    6.0406    0.7931 H         1 UNK         0.0000 
     98 H98        -0.9035    5.0004    2.2223 H         1 UNK         0.0000 
     99 H99        -0.1552    6.1465    3.3319 H         1 UNK         0.0000 
    100 H100       -0.1095    2.9755    2.7532 H         1 UNK         0.0000 
    101 H101        1.3880    0.6756    5.1365 H         1 UNK         0.0000 
    102 H102       -0.0909    1.5639    4.8903 H         1 UNK         0.0000 
    103 H103       -0.2179    0.6562    2.5586 H         1 UNK         0.0000 
    104 H104        1.2986   -0.1818    2.8326 H         1 UNK         0.0000 
    105 H105       -1.3566   -0.8788    4.1012 H         1 UNK         0.0000 
    106 H106        0.1290   -1.5843    4.6002 H         1 UNK         0.0000 
    107 H107       -1.6732   -3.2857    4.6688 H         1 UNK         0.0000 
    108 H108       -2.4673   -4.9133    6.1708 H         1 UNK         0.0000 
    109 H109       -2.8729   -6.4276    5.3947 H         1 UNK         0.0000 
    110 H110       -1.3791   -6.2817    6.3258 H         1 UNK         0.0000 
    111 H111        0.3294   -6.1939    3.2969 H         1 UNK         0.0000 
    112 H112       -1.2196   -6.5386    2.5731 H         1 UNK         0.0000 
    113 H113       -0.1807   -7.9128    5.1055 H         1 UNK         0.0000 
    114 H114        0.0238   -8.5288    3.4840 H         1 UNK         0.0000 
    115 H115       -1.8754   -9.3256    4.6476 H         1 UNK         0.0000 
    116 H116        4.3438    1.6323    1.8757 H         1 UNK         0.0000 
    117 H117        2.7976   -0.3846   -0.6051 H         1 UNK         0.0000 
    118 H118        4.3318    0.2357   -0.1902 H         1 UNK         0.0000 
    119 H119        4.5097   -0.9029    1.9299 H         1 UNK         0.0000 
    120 H120        2.8440   -1.3511    1.9670 H         1 UNK         0.0000 
    121 H121        4.4864   -3.2906    1.5053 H         1 UNK         0.0000 
    122 H122        4.8084   -2.5653   -0.0434 H         1 UNK         0.0000 
    123 H123        4.8365   -8.1557    0.6174 H         1 UNK         0.0000 
    124 H124        5.5839   -7.6027   -0.8933 H         1 UNK         0.0000 
    125 H125        4.4618   -8.9529   -0.8910 H         1 UNK         0.0000 
    126 H126        1.4460   -7.4083   -0.8123 H         1 UNK         0.0000 
    127 H127        2.1230   -6.6036   -2.2045 H         1 UNK         0.0000 
    128 H128        2.3752   -9.5719   -1.5412 H         1 UNK         0.0000 
    129 H129        1.2970   -8.8452   -2.7015 H         1 UNK         0.0000 
    130 H130        3.2212   -9.6282   -3.6965 H         1 UNK         0.0000 
    131 H131       -3.6764   -2.8290   -3.1698 H         1 UNK         0.0000 
    132 H132        4.5610   -5.4786    0.5047 H         1 UNK         0.0000 
@<TRIPOS>BOND
     1    1    9 nc   
     2    1   11 nc   
     3    1   47 nc   
     4    1   49 nc   
     5    1   65 nc   
     6    1   67 nc   
     7    2    3 1    
     8    2   74 1    
     9    3    4 1    
    10    3   76 1    
    11    3   75 1    
    12    4   78 1    
    13    4    5 1    
    14    4   77 1    
    15    5    7 2    
    16    5    6 1    
    17    6   81 1    
    18    6   79 1    
    19    6   80 1    
    20    7    8 1    
    21    7  131 1    
    22    8   10 am   BACKBONE|DICT|INTERRES
    23    8    9 2    
    24   10   11 1    
    25   10   12 1    
    26   12   83 1    
    27   12   13 1    
    28   12   82 1    
    29   13   14 1    
    30   13   84 1    
    31   13   85 1    
    32   14   87 1    
    33   14   86 1    
    34   14   15 1    
    35   15   16 1    
    36   15   17 1    
    37   15   20 1    
    38   17   18 am   BACKBONE|DICT|INTERRES
    39   17   88 1    
    40   18   19 2    
    41   18   59 1    
    42   20   22 am   BACKBONE|DICT|INTERRES
    43   20   21 2    
    44   22   89 1    
    45   22   23 1    
    46   23   24 1    
    47   23   27 1    
    48   23   25 1    
    49   25   91 1    
    50   25   26 1    
    51   25   90 1    
    52   26   92 1    
    53   27   29 am   BACKBONE|DICT|INTERRES
    54   27   28 2    
    55   29   30 1    
    56   29   93 1    
    57   30   31 1    
    58   30   34 1    
    59   30   32 1    
    60   32   94 1    
    61   32   33 1    
    62   32   95 1    
    63   33   96 1    
    64   34   36 am   BACKBONE|DICT|INTERRES
    65   34   35 2    
    66   36   37 1    
    67   36   97 1    
    68   37   38 1    
    69   37   99 1    
    70   37   98 1    
    71   38   40 am   BACKBONE|DICT|INTERRES
    72   38   39 2    
    73   40   41 1    
    74   40  100 1    
    75   41   43 1    
    76   41   42 1    
    77   41   56 1    
    78   43  102 1    
    79   43  101 1    
    80   43   44 1    
    81   44   45 1    
    82   44  103 1    
    83   44  104 1    
    84   45  105 1    
    85   45  106 1    
    86   45   46 1    
    87   46   48 am   BACKBONE|DICT|INTERRES
    88   46   47 1    
    89   48   50 1    
    90   48   49 2    
    91   50   51 2    
    92   50  107 1    
    93   51   52 1    
    94   51   53 1    
    95   52  108 1    
    96   52  110 1    
    97   52  109 1    
    98   53   54 1    
    99   53  111 1    
   100   53  112 1    
   101   54   55 1    
   102   54  113 1    
   103   54  114 1    
   104   55  115 1    
   105   56   57 2    
   106   56   58 am   BACKBONE|DICT|INTERRES
   107   58   59 1    
   108   58  116 1    
   109   59   60 1    
   110   59   61 1    
   111   61   62 1    
   112   61  117 1    
   113   61  118 1    
   114   62  120 1    
   115   62  119 1    
   116   62   63 1    
   117   63  121 1    
   118   63   64 1    
   119   63  122 1    
   120   64   65 1    
   121   64   66 am   BACKBONE|DICT|INTERRES
   122   66   68 1    
   123   66   67 2    
   124   68   69 2    
   125   68  132 1    
   126   69   70 1    
   127   69   71 1    
   128   70  123 1    
   129   70  124 1    
   130   70  125 1    
   131   71  126 1    
   132   71   72 1    
   133   71  127 1    
   134   72  128 1    
   135   72   73 1    
   136   72  129 1    
   137   73  130 1    
@<TRIPOS>SUBSTRUCTURE
     1 UNK         1 GROUP             0       ****    0 ROOT    
@<TRIPOS>MOLECULE
156_c1
168   173    1
SMALL
USER_CHARGES


@<TRIPOS>ATOM
      1 Fe1        -1.1895    3.7884    3.1427 Fe        1 UNK         0.0000 
      2 O2         -3.8500   -1.2281   -4.7542 O.2       1 UNK         0.0000 
      3 C3         -3.8820   -0.0196   -4.9838 C.2       1 UNK         0.0000 
      4 N4         -4.8915    0.7655   -4.5474 N.am      1 UNK         0.0000 
      5 C5         -6.2673    0.2356   -4.5505 C.3       1 UNK         0.0000 
      6 H6         -6.2609   -0.7703   -4.9749 H         1 UNK         0.0000 
      7 C7         -7.0800    1.1523   -5.5104 C.3       1 UNK         0.0000 
      8 O8         -7.9825    0.4287   -6.3252 O.3       1 UNK         0.0000 
      9 C9         -7.0648    0.1284   -3.2111 C.2       1 UNK         0.0000 
     10 O10        -8.1937   -0.3574   -3.2838 O.2       1 UNK         0.0000 
     11 N11        -6.5997    0.7189   -2.0987 N.am      1 UNK         0.0000 
     12 C12        -7.5102    1.4571   -1.1872 C.3       1 UNK         0.0000 
     13 H13        -8.1986    1.8697   -1.9344 H         1 UNK         0.0000 
     14 C14        -6.9859    2.8030   -0.6329 C.3       1 UNK         0.0000 
     15 C15        -5.9496    2.7527    0.4845 C.3       1 UNK         0.0000 
     16 C16        -5.3591    4.1667    0.7592 C.3       1 UNK         0.0000 
     17 N17        -4.1979    4.2250    1.6926 N.am      1 UNK         0.0000 
     18 O18        -3.3871    3.1717    1.5582 O.co2     1 UNK         0.0000 
     19 C19        -3.9270    5.2995    2.4916 C.2       1 UNK         0.0000 
     20 O20        -2.8412    5.3694    3.1116 O.co2     1 UNK         0.0000 
     21 C21        -4.9382    6.4304    2.6502 C.3       1 UNK         0.0000 
     22 C22        -8.5712    0.7865   -0.2610 C.2       1 UNK         0.0000 
     23 O23        -9.6712    1.3295   -0.2770 O.2       1 UNK         0.0000 
     24 N24        -8.4688   -0.2489    0.5916 N.am      1 UNK         0.0000 
     25 C25        -7.5867   -1.3162    1.0793 C.3       1 UNK         0.0000 
     26 H26        -7.6691   -2.1026    0.3295 H         1 UNK         0.0000 
     27 C27        -8.2731   -1.8483    2.3584 C.3       1 UNK         0.0000 
     28 C28        -6.0600   -1.1244    1.2647 C.2       1 UNK         0.0000 
     29 O29        -5.4055   -0.6312    0.3513 O.2       1 UNK         0.0000 
     30 N30        -5.4910   -1.7018    2.3423 N.am      1 UNK         0.0000 
     31 C31        -4.1350   -2.2473    2.3359 C.3       1 UNK         0.0000 
     32 C32        -3.5195   -2.2740    3.7452 C.2       1 UNK         0.0000 
     33 O33        -4.2251   -2.1236    4.7400 O.2       1 UNK         0.0000 
     34 N34        -2.1994   -2.5242    3.7916 N.am      1 UNK         0.0000 
     35 C35        -1.3490   -2.7358    4.9796 C.3       1 UNK         0.0000 
     36 H36        -1.6151   -3.7088    5.4046 H         1 UNK         0.0000 
     37 C37        -1.4992   -1.6998    6.1372 C.3       1 UNK         0.0000 
     38 C38        -1.6673   -0.2354    5.7027 C.3       1 UNK         0.0000 
     39 C39        -0.9160    0.8049    6.5751 C.3       1 UNK         0.0000 
     40 N40        -0.7327    2.0868    5.8565 N.am      1 UNK         0.0000 
     41 O41         0.0256    1.9275    4.7588 O.co2     1 UNK         0.0000 
     42 C42        -1.3878    3.2449    6.1824 C.2       1 UNK         0.0000 
     43 O43        -1.4427    4.1719    5.3528 O.co2     1 UNK         0.0000 
     44 C44        -2.0898    3.4244    7.5319 C.3       1 UNK         0.0000 
     45 C45         0.1400   -2.9258    4.6006 C.2       1 UNK         0.0000 
     46 O46         0.8149   -3.6569    5.3139 O.2       1 UNK         0.0000 
     47 N47         0.6555   -2.2835    3.5310 N.am      1 UNK         0.0000 
     48 C48         2.1192   -2.1693    3.3223 C.3       1 UNK         0.0000 
     49 C49         2.6780   -2.7731    2.0062 C.2       1 UNK         0.0000 
     50 O50         2.0328   -3.5184    1.2653 O.2       1 UNK         0.0000 
     51 O51         3.9627   -2.3722    1.7975 O.3       1 UNK         0.0000 
     52 C52         4.9094   -3.0809    0.9759 C.3       1 UNK         0.0000 
     53 C53         5.1868   -2.6355   -0.5106 C.3       1 UNK         0.0000 
     54 H54         4.6452   -3.3411   -1.1368 H         1 UNK         0.0000 
     55 N55         6.5994   -2.7264   -0.9852 N.am      1 UNK         0.0000 
     56 C56         7.6438   -3.4476   -0.4987 C.2       1 UNK         0.0000 
     57 O57         7.5579   -4.1063    0.5357 O.2       1 UNK         0.0000 
     58 C58         8.9781   -3.4710   -1.3032 C.3       1 UNK         0.0000 
     59 C59        10.2044   -4.1779   -0.6104 C.3       1 UNK         0.0000 
     60 C60        11.5381   -4.1957   -1.4318 C.3       1 UNK         0.0000 
     61 C61        12.3294   -5.5488   -1.4639 C.3       1 UNK         0.0000 
     62 C62        13.6312   -5.6422   -0.6136 C.3       1 UNK         0.0000 
     63 C63        14.9390   -5.2093   -1.3283 C.3       1 UNK         0.0000 
     64 C64        15.7297   -6.3418   -2.0376 C.3       1 UNK         0.0000 
     65 C65        16.7140   -7.1329   -1.1378 C.3       1 UNK         0.0000 
     66 C66        18.1963   -6.9632   -1.5320 C.3       1 UNK         0.0000 
     67 C67         4.5880   -1.2477   -0.8402 C.2       1 UNK         0.0000 
     68 O68         5.0570   -0.2618   -0.2795 O.2       1 UNK         0.0000 
     69 N69         3.5531   -1.2074   -1.7082 N.am      1 UNK         0.0000 
     70 C70         2.5709   -0.1272   -1.9464 C.3       1 UNK         0.0000 
     71 H71         1.6925   -0.4529   -1.3900 H         1 UNK         0.0000 
     72 C72         2.9345    1.3293   -1.4856 C.3       1 UNK         0.0000 
     73 C73         2.3527    1.7465   -0.1183 C.3       1 UNK         0.0000 
     74 C74         2.0195    3.2718   -0.0410 C.3       1 UNK         0.0000 
     75 N75         1.1061    3.6905    1.0503 N.am      1 UNK         0.0000 
     76 O76         0.0332    2.8926    1.1441 O.co2     1 UNK         0.0000 
     77 C77         1.3127    4.8062    1.8148 C.2       1 UNK         0.0000 
     78 O78         0.5062    5.1323    2.7119 O.co2     1 UNK         0.0000 
     79 C79         2.5136    5.7015    1.5679 C.3       1 UNK         0.0000 
     80 C80         2.1087   -0.0821   -3.4237 C.2       1 UNK         0.0000 
     81 O81         2.9291   -0.2899   -4.3203 O.2       1 UNK         0.0000 
     82 N82         0.8412    0.3044   -3.6336 N.am      1 UNK         0.0000 
     83 C83         0.2664    0.7154   -4.9204 C.3       1 UNK         0.0000 
     84 C84        -0.4275   -0.4672   -5.6191 C.2       1 UNK         0.0000 
     85 O85         0.1944   -1.5099   -5.7915 O.2       1 UNK         0.0000 
     86 N86        -1.6829   -0.3803   -6.0994 N.am      1 UNK         0.0000 
     87 C87        -2.7757    0.5934   -5.8949 C.3       1 UNK         0.0000 
     88 H88        -2.4100    1.5105   -5.4363 H         1 UNK         0.0000 
     89 C89        -3.4684    0.9222   -7.2711 C.3       1 UNK         0.0000 
     90 C90        -2.6942    1.9616   -8.1093 C.3       1 UNK         0.0000 
     91 C91        -3.7982   -0.3267   -8.1343 C.3       1 UNK         0.0000 
     92 H92        -4.8348    1.7561   -4.7388 H         1 UNK         0.0000 
     93 H93        -6.4368    1.7253   -6.1771 H         1 UNK         0.0000 
     94 H94        -7.6427    1.9035   -4.9488 H         1 UNK         0.0000 
     95 H95        -8.6260   -0.0024   -5.7487 H         1 UNK         0.0000 
     96 H96        -5.6203    0.9487   -2.0187 H         1 UNK         0.0000 
     97 H97        -7.8400    3.3517   -0.2312 H         1 UNK         0.0000 
     98 H98        -6.6279    3.4095   -1.4661 H         1 UNK         0.0000 
     99 H99        -5.1692    2.0547    0.1912 H         1 UNK         0.0000 
    100 H100       -6.4054    2.3516    1.3838 H         1 UNK         0.0000 
    101 H101       -6.1823    4.8490    1.0043 H         1 UNK         0.0000 
    102 H102       -4.9917    4.5620   -0.1951 H         1 UNK         0.0000 
    103 H103       -4.6662    7.0652    3.4858 H         1 UNK         0.0000 
    104 H104       -5.9301    6.0428    2.8689 H         1 UNK         0.0000 
    105 H105       -5.0037    7.0659    1.7693 H         1 UNK         0.0000 
    106 H106       -9.3856   -0.3787    0.9931 H         1 UNK         0.0000 
    107 H107       -8.2269   -1.1086    3.1605 H         1 UNK         0.0000 
    108 H108       -9.3282   -2.0626    2.1803 H         1 UNK         0.0000 
    109 H109       -7.8307   -2.7755    2.7232 H         1 UNK         0.0000 
    110 H110       -6.0396   -2.0003    3.1383 H         1 UNK         0.0000 
    111 H111       -3.4708   -1.7654    1.6151 H         1 UNK         0.0000 
    112 H112       -4.2566   -3.2865    2.0276 H         1 UNK         0.0000 
    113 H113       -1.7232   -2.6911    2.9196 H         1 UNK         0.0000 
    114 H114       -0.6367   -1.7947    6.8009 H         1 UNK         0.0000 
    115 H115       -2.3506   -1.9819    6.7553 H         1 UNK         0.0000 
    116 H116       -2.7279    0.0001    5.7166 H         1 UNK         0.0000 
    117 H117       -1.3768   -0.1458    4.6589 H         1 UNK         0.0000 
    118 H118       -1.4106    0.8681    7.5520 H         1 UNK         0.0000 
    119 H119        0.0885    0.4306    6.8108 H         1 UNK         0.0000 
    120 H120       -1.6292    2.8803    8.3544 H         1 UNK         0.0000 
    121 H121       -2.0492    4.4716    7.8123 H         1 UNK         0.0000 
    122 H122       -3.1393    3.1490    7.4688 H         1 UNK         0.0000 
    123 H123        0.0885   -1.6167    3.0334 H         1 UNK         0.0000 
    124 H124        2.3620   -1.1119    3.3702 H         1 UNK         0.0000 
    125 H125        2.6854   -2.6312    4.1373 H         1 UNK         0.0000 
    126 H126        4.7041   -4.1521    0.9999 H         1 UNK         0.0000 
    127 H127        5.8242   -2.9417    1.5471 H         1 UNK         0.0000 
    128 H128        6.7446   -2.2107   -1.8396 H         1 UNK         0.0000 
    129 H129        8.7735   -3.9998   -2.2356 H         1 UNK         0.0000 
    130 H130        9.2564   -2.4509   -1.5719 H         1 UNK         0.0000 
    131 H131        9.9254   -5.2005   -0.3516 H         1 UNK         0.0000 
    132 H132       12.1891   -3.3900   -1.0851 H         1 UNK         0.0000 
    133 H133       12.5775   -5.7868   -2.5003 H         1 UNK         0.0000 
    134 H134       11.6720   -6.3638   -1.1620 H         1 UNK         0.0000 
    135 H135       13.7624   -6.6650   -0.2518 H         1 UNK         0.0000 
    136 H136       13.5033   -5.0474    0.2900 H         1 UNK         0.0000 
    137 H137       14.7003   -4.4333   -2.0554 H         1 UNK         0.0000 
    138 H138       15.5969   -4.7239   -0.6052 H         1 UNK         0.0000 
    139 H139       16.2781   -5.9149   -2.8800 H         1 UNK         0.0000 
    140 H140       15.0286   -7.0410   -2.4943 H         1 UNK         0.0000 
    141 H141       16.4589   -8.1932   -1.1838 H         1 UNK         0.0000 
    142 H142       16.5915   -6.8549   -0.0899 H         1 UNK         0.0000 
    143 H143       18.5103   -5.9218   -1.4530 H         1 UNK         0.0000 
    144 H144       18.8522   -7.5492   -0.8855 H         1 UNK         0.0000 
    145 H145       18.3840   -7.2874   -2.5572 H         1 UNK         0.0000 
    146 H146        3.3288   -2.0483   -2.2257 H         1 UNK         0.0000 
    147 H147        4.0050    1.5226   -1.5250 H         1 UNK         0.0000 
    148 H148        2.5370    2.0256   -2.2238 H         1 UNK         0.0000 
    149 H149        1.4504    1.1714    0.0703 H         1 UNK         0.0000 
    150 H150        3.0283    1.4614    0.6844 H         1 UNK         0.0000 
    151 H151        1.4896    3.5577   -0.9551 H         1 UNK         0.0000 
    152 H152        2.9590    3.8343   -0.1279 H         1 UNK         0.0000 
    153 H153        2.5694    6.0447    0.5326 H         1 UNK         0.0000 
    154 H154        3.4313    5.1709    1.8173 H         1 UNK         0.0000 
    155 H155        2.4574    6.5896    2.1935 H         1 UNK         0.0000 
    156 H156        0.2336    0.4084   -2.8324 H         1 UNK         0.0000 
    157 H157        1.0488    1.0845   -5.5881 H         1 UNK         0.0000 
    158 H158       -0.3984    1.5504   -4.7196 H         1 UNK         0.0000 
    159 H159       -2.0068   -1.2451   -6.5013 H         1 UNK         0.0000 
    160 H160       -4.4304    1.3929   -7.0660 H         1 UNK         0.0000 
    161 H161       -2.5904    2.9241   -7.6039 H         1 UNK         0.0000 
    162 H162       -1.6936    1.6026   -8.3444 H         1 UNK         0.0000 
    163 H163       -3.2018    2.1651   -9.0551 H         1 UNK         0.0000 
    164 H164       -4.3981   -0.0686   -9.0094 H         1 UNK         0.0000 
    165 H165       -4.3587   -1.0923   -7.5952 H         1 UNK         0.0000 
    166 H166       -2.8902   -0.7995   -8.5090 H         1 UNK         0.0000 
    167 H167       10.4029   -3.6873    0.3449 H         1 UNK         0.0000 
    168 H168       11.3083   -3.9252   -2.4626 H         1 UNK         0.0000 
@<TRIPOS>BOND
     1    1   18 nc   
     2    1   20 nc   
     3    1   41 nc   
     4    1   43 nc   
     5    1   76 nc   
     6    1   78 nc   
     7    2    3 2    
     8    3    4 am   BACKBONE|DICT|INTERRES
     9    3   87 1    
    10    4    5 1    
    11    4   92 1    
    12    5    6 1    
    13    5    9 1    
    14    5    7 1    
    15    7   94 1    
    16    7    8 1    
    17    7   93 1    
    18    8   95 1    
    19    9   11 am   BACKBONE|DICT|INTERRES
    20    9   10 2    
    21   11   12 1    
    22   11   96 1    
    23   12   13 1    
    24   12   14 1    
    25   12   22 1    
    26   14   97 1    
    27   14   15 1    
    28   14   98 1    
    29   15   99 1    
    30   15   16 1    
    31   15  100 1    
    32   16  101 1    
    33   16   17 1    
    34   16  102 1    
    35   17   19 am   BACKBONE|DICT|INTERRES
    36   17   18 1    
    37   19   20 2    
    38   19   21 1    
    39   21  104 1    
    40   21  103 1    
    41   21  105 1    
    42   22   24 am   BACKBONE|DICT|INTERRES
    43   22   23 2    
    44   24   25 1    
    45   24  106 1    
    46   25   26 1    
    47   25   27 1    
    48   25   28 1    
    49   27  107 1    
    50   27  108 1    
    51   27  109 1    
    52   28   30 am   BACKBONE|DICT|INTERRES
    53   28   29 2    
    54   30  110 1    
    55   30   31 1    
    56   31   32 1    
    57   31  112 1    
    58   31  111 1    
    59   32   34 am   BACKBONE|DICT|INTERRES
    60   32   33 2    
    61   34   35 1    
    62   34  113 1    
    63   35   36 1    
    64   35   37 1    
    65   35   45 1    
    66   37   38 1    
    67   37  115 1    
    68   37  114 1    
    69   38  116 1    
    70   38  117 1    
    71   38   39 1    
    72   39  118 1    
    73   39  119 1    
    74   39   40 1    
    75   40   42 am   BACKBONE|DICT|INTERRES
    76   40   41 1    
    77   42   44 1    
    78   42   43 2    
    79   44  121 1    
    80   44  122 1    
    81   44  120 1    
    82   45   46 2    
    83   45   47 am   BACKBONE|DICT|INTERRES
    84   47  123 1    
    85   47   48 1    
    86   48  125 1    
    87   48  124 1    
    88   48   49 1    
    89   49   50 2    
    90   49   51 1    
    91   51   52 1    
    92   52  127 1    
    93   52   53 1    
    94   52  126 1    
    95   53   54 1    
    96   53   55 1    
    97   53   67 1    
    98   55   56 am   BACKBONE|DICT|INTERRES
    99   55  128 1    
   100   56   57 2    
   101   56   58 1    
   102   58  129 1    
   103   58   59 1    
   104   58  130 1    
   105   59  131 1    
   106   59   60 1    
   107   59  167 1    
   108   60  132 1    
   109   60   61 1    
   110   60  168 1    
   111   61   62 1    
   112   61  133 1    
   113   61  134 1    
   114   62  135 1    
   115   62  136 1    
   116   62   63 1    
   117   63  138 1    
   118   63   64 1    
   119   63  137 1    
   120   64   65 1    
   121   64  139 1    
   122   64  140 1    
   123   65  142 1    
   124   65   66 1    
   125   65  141 1    
   126   66  144 1    
   127   66  143 1    
   128   66  145 1    
   129   67   68 2    
   130   67   69 am   BACKBONE|DICT|INTERRES
   131   69   70 1    
   132   69  146 1    
   133   70   71 1    
   134   70   72 1    
   135   70   80 1    
   136   72   73 1    
   137   72  147 1    
   138   72  148 1    
   139   73  149 1    
   140   73   74 1    
   141   73  150 1    
   142   74  152 1    
   143   74   75 1    
   144   74  151 1    
   145   75   77 am   BACKBONE|DICT|INTERRES
   146   75   76 1    
   147   77   79 1    
   148   77   78 2    
   149   79  154 1    
   150   79  155 1    
   151   79  153 1    
   152   80   81 2    
   153   80   82 am   BACKBONE|DICT|INTERRES
   154   82   83 1    
   155   82  156 1    
   156   83   84 1    
   157   83  157 1    
   158   83  158 1    
   159   84   85 2    
   160   84   86 am   BACKBONE|DICT|INTERRES
   161   86   87 1    
   162   86  159 1    
   163   87   88 1    
   164   87   89 1    
   165   89   90 1    
   166   89   91 1    
   167   89  160 1    
   168   90  161 1    
   169   90  162 1    
   170   90  163 1    
   171   91  164 1    
   172   91  165 1    
   173   91  166 1    
@<TRIPOS>SUBSTRUCTURE
     1 UNK         1 GROUP             0       ****    0 ROOT    
@<TRIPOS>MOLECULE
157_c1
169   174    1
SMALL
USER_CHARGES


@<TRIPOS>ATOM
      1 Fe1        -2.2348   -4.7896   -4.5100 Fe        1 UNK         0.0000 
      2 O2         -3.9475   -5.7562   -4.5598 O.co2     1 UNK         0.0000 
      3 C3         -5.0707   -5.9132   -4.1486 C.2       1 UNK         0.0000 
      4 C4         -6.0912   -6.8732   -4.6771 C.3       1 UNK         0.0000 
      5 N5         -5.1848   -5.0652   -3.2176 N.am      1 UNK         0.0000 
      6 O6         -3.9517   -4.5644   -3.2723 O.co2     1 UNK         0.0000 
      7 C7         -6.3373   -4.6946   -2.4145 C.3       1 UNK         0.0000 
      8 C8         -6.0873   -3.4599   -1.5344 C.3       1 UNK         0.0000 
      9 C9         -7.4067   -3.0367   -0.8496 C.3       1 UNK         0.0000 
     10 C10        -7.3494   -1.7374   -0.0014 C.3       1 UNK         0.0000 
     11 H11        -8.3948   -1.5518    0.3347 H         1 UNK         0.0000 
     12 N12        -6.5806   -1.9354    1.2275 N.am      1 UNK         0.0000 
     13 C13        -6.5807   -1.0122    2.2375 C.2       1 UNK         0.0000 
     14 O14        -7.1515    0.0603    2.0979 O.2       1 UNK         0.0000 
     15 C15        -5.9605   -1.2891    3.5865 C.3       1 UNK         0.0000 
     16 H16        -6.0334   -0.3534    4.1876 H         1 UNK         0.0000 
     17 C17        -6.7627   -2.3552    4.3491 C.3       1 UNK         0.0000 
     18 O18        -8.0873   -1.9286    4.5194 O.3       1 UNK         0.0000 
     19 N19        -4.5777   -1.7267    3.4798 N.am      1 UNK         0.0000 
     20 C20        -3.5278   -1.0012    3.9576 C.2       1 UNK         0.0000 
     21 O21        -3.6953    0.1468    4.3440 O.2       1 UNK         0.0000 
     22 C22        -2.1580   -1.6447    4.0795 C.3       1 UNK         0.0000 
     23 H23        -2.2468   -2.7006    3.7433 H         1 UNK         0.0000 
     24 C24        -1.6850   -1.7247    5.5714 C.3       1 UNK         0.0000 
     25 C25        -1.4411   -0.3611    6.2517 C.3       1 UNK         0.0000 
     26 C26        -2.6689   -2.5462    6.4240 C.3       1 UNK         0.0000 
     27 N27        -1.1566   -0.9589    3.2654 N.am      1 UNK         0.0000 
     28 C28        -0.3658   -1.6067    2.3524 C.2       1 UNK         0.0000 
     29 O29        -0.5223   -2.7978    2.1235 O.2       1 UNK         0.0000 
     30 C30         0.8131   -0.9002    1.7207 C.3       1 UNK         0.0000 
     31 N31         2.0062   -1.4445    2.3351 N.am      1 UNK         0.0000 
     32 C32         3.1431   -1.8983    1.7328 C.2       1 UNK         0.0000 
     33 O33         4.0258   -2.3260    2.4658 O.2       1 UNK         0.0000 
     34 C34         3.4701   -1.8285    0.2422 C.3       1 UNK         0.0000 
     35 H35         4.5566   -2.0939    0.2422 H         1 UNK         0.0000 
     36 C36         3.0426   -2.9750   -0.7265 C.3       1 UNK         0.0000 
     37 C37         1.6183   -3.2201   -1.3124 C.3       1 UNK         0.0000 
     38 C38         1.7715   -4.4444   -2.2755 C.3       1 UNK         0.0000 
     39 N39         0.6294   -4.8920   -3.0706 N.am      1 UNK         0.0000 
     40 O40        -0.6406   -4.4980   -3.1638 O.co2     1 UNK         0.0000 
     41 C41         0.6056   -5.7981   -3.9607 C.2       1 UNK         0.0000 
     42 O42        -0.5131   -5.7792   -4.4085 O.co2     1 UNK         0.0000 
     43 C43         1.7246   -6.6917   -4.3975 C.3       1 UNK         0.0000 
     44 N44         3.4248   -0.4731   -0.3047 N.am      1 UNK         0.0000 
     45 C45         4.4362    0.4335   -0.0765 C.2       1 UNK         0.0000 
     46 O46         5.3747    0.1279    0.6473 O.2       1 UNK         0.0000 
     47 C47         4.4231    1.8270   -0.7001 C.3       1 UNK         0.0000 
     48 H48         3.5152    2.3531   -0.3278 H         1 UNK         0.0000 
     49 N49         5.5784    2.6626   -0.3443 N.am      1 UNK         0.0000 
     50 C50         6.8849    2.3983   -0.6663 C.2       1 UNK         0.0000 
     51 O51         7.2123    1.3090   -1.1139 O.2       1 UNK         0.0000 
     52 C52         7.9202    3.5065   -0.5932 C.3       1 UNK         0.0000 
     53 C53         9.0033    3.3485    0.4421 C.2       1 UNK         0.0000 
     54 C54         9.9334    4.3203    0.5559 C.2       1 UNK         0.0000 
     55 C55        10.9698    4.3530    1.6509 C.3       1 UNK         0.0000 
     56 C56        12.4405    4.4562    1.2015 C.3       1 UNK         0.0000 
     57 C57        12.7345    5.6550    0.2773 C.3       1 UNK         0.0000 
     58 C58        14.2285    6.0400    0.2369 C.3       1 UNK         0.0000 
     59 C59        15.1825    4.9111   -0.1781 C.3       1 UNK         0.0000 
     60 C60        16.6328    5.3990   -0.1552 C.3       1 UNK         0.0000 
     61 C61         4.3375    1.8190   -2.2352 C.3       1 UNK         0.0000 
     62 O62         3.0814    1.4752   -2.6925 O.3       1 UNK         0.0000 
     63 C63         2.7220    1.6696   -3.9891 C.2       1 UNK         0.0000 
     64 O64         3.5636    2.0042   -4.8140 O.2       1 UNK         0.0000 
     65 C65         1.2629    1.5657   -4.3680 C.3       1 UNK         0.0000 
     66 N66         1.0026    1.9776   -5.7401 N.am      1 UNK         0.0000 
     67 C67        -0.1962    2.0771   -6.4047 C.2       1 UNK         0.0000 
     68 O68        -0.1331    2.4842   -7.5582 O.2       1 UNK         0.0000 
     69 C69        -1.6416    1.7738   -5.9251 C.3       1 UNK         0.0000 
     70 H70        -2.1732    2.7388   -6.0740 H         1 UNK         0.0000 
     71 C71        -2.2294    0.7049   -6.8959 C.3       1 UNK         0.0000 
     72 C72        -1.6384   -0.6774   -6.6121 C.3       1 UNK         0.0000 
     73 C73        -2.2171   -1.7878   -7.5063 C.3       1 UNK         0.0000 
     74 N74        -1.9534   -3.0516   -6.8505 N.am      1 UNK         0.0000 
     75 O75        -2.2706   -3.4345   -5.6185 O.co2     1 UNK         0.0000 
     76 C76        -1.9117   -4.2176   -7.1625 C.2       1 UNK         0.0000 
     77 O77        -2.0856   -4.7053   -6.0371 O.co2     1 UNK         0.0000 
     78 C78        -1.8243   -4.8802   -8.4992 C.3       1 UNK         0.0000 
     79 N79        -1.8293    1.3763   -4.5213 N.am      1 UNK         0.0000 
     80 C80        -3.0089    1.3843   -3.8247 C.2       1 UNK         0.0000 
     81 O81        -2.9950    1.0184   -2.6562 O.2       1 UNK         0.0000 
     82 C82        -4.3235    1.8466   -4.4116 C.3       1 UNK         0.0000 
     83 N83        -5.3847    1.8352   -3.4125 N.am      1 UNK         0.0000 
     84 C84        -6.5056    1.0652   -3.5201 C.2       1 UNK         0.0000 
     85 O85        -6.6456    0.3012   -4.4660 O.2       1 UNK         0.0000 
     86 C86        -7.6203    1.1737   -2.4947 C.3       1 UNK         0.0000 
     87 H87        -7.3550    1.9317   -1.7222 H         1 UNK         0.0000 
     88 N88        -7.8949   -0.1314   -1.8469 N.4       1 UNK         0.0000 
     89 H89        -7.9841   -0.8801   -2.5712 H         1 UNK         0.0000 
     90 H90        -8.8104   -0.0582   -1.3450 H         1 UNK         0.0000 
     91 C91        -6.8879   -0.4906   -0.8276 C.3       1 UNK         0.0000 
     92 C92        -8.8827    1.7054   -3.2036 C.3       1 UNK         0.0000 
     93 O93        -9.9063    1.9205   -2.2703 O.3       1 UNK         0.0000 
     94 H94        -7.0433   -6.7924   -4.1130 H         1 UNK         0.0000 
     95 H95        -6.2860   -6.6552   -5.7474 H         1 UNK         0.0000 
     96 H96        -5.7058   -7.9095   -4.5794 H         1 UNK         0.0000 
     97 H97        -7.1650   -4.4475   -3.1153 H         1 UNK         0.0000 
     98 H98        -6.6508   -5.5591   -1.7897 H         1 UNK         0.0000 
     99 H99        -5.7395   -2.6464   -2.2028 H         1 UNK         0.0000 
    100 H100       -5.3006   -3.6722   -0.7794 H         1 UNK         0.0000 
    101 H101       -8.1754   -2.8956   -1.6379 H         1 UNK         0.0000 
    102 H102       -7.7659   -3.8672   -0.2020 H         1 UNK         0.0000 
    103 H103       -6.1059   -2.8373    1.3837 H         1 UNK         0.0000 
    104 H104       -6.2927   -2.5034    5.3481 H         1 UNK         0.0000 
    105 H105       -6.7470   -3.3162    3.7876 H         1 UNK         0.0000 
    106 H106       -8.5382   -2.6334    5.0532 H         1 UNK         0.0000 
    107 H107       -4.4038   -2.6711    3.1029 H         1 UNK         0.0000 
    108 H108       -0.7124   -2.2648    5.5748 H         1 UNK         0.0000 
    109 H109       -0.6888    0.2366    5.6998 H         1 UNK         0.0000 
    110 H110       -2.3734    0.2294    6.3535 H         1 UNK         0.0000 
    111 H111       -1.0445   -0.5188    7.2777 H         1 UNK         0.0000 
    112 H112       -2.8032   -3.5599    5.9918 H         1 UNK         0.0000 
    113 H113       -2.2797   -2.6624    7.4586 H         1 UNK         0.0000 
    114 H114       -3.6609   -2.0482    6.4821 H         1 UNK         0.0000 
    115 H115       -0.9745    0.0369    3.4591 H         1 UNK         0.0000 
    116 H116        0.7670    0.1783    1.9838 H         1 UNK         0.0000 
    117 H117        0.8123   -0.9890    0.6152 H         1 UNK         0.0000 
    118 H118        1.9966   -1.4673    3.3694 H         1 UNK         0.0000 
    119 H119        3.7044   -2.8396   -1.6138 H         1 UNK         0.0000 
    120 H120        3.3497   -3.9222   -0.2258 H         1 UNK         0.0000 
    121 H121        0.8876   -3.4393   -0.5051 H         1 UNK         0.0000 
    122 H122        1.2867   -2.3267   -1.8829 H         1 UNK         0.0000 
    123 H123        2.1272   -5.3145   -1.6803 H         1 UNK         0.0000 
    124 H124        2.5698   -4.1852   -3.0056 H         1 UNK         0.0000 
    125 H125        2.0677   -7.3035   -3.5369 H         1 UNK         0.0000 
    126 H126        1.3782   -7.3689   -5.2061 H         1 UNK         0.0000 
    127 H127        2.5701   -6.0797   -4.7739 H         1 UNK         0.0000 
    128 H128        2.6333   -0.2162   -0.9108 H         1 UNK         0.0000 
    129 H129        5.3587    3.5828    0.0670 H         1 UNK         0.0000 
    130 H130        7.4057    4.4652   -0.3660 H         1 UNK         0.0000 
    131 H131        8.3793    3.6077   -1.6011 H         1 UNK         0.0000 
    132 H132        8.9976    2.4998    1.1198 H         1 UNK         0.0000 
    133 H133        9.8991    5.1678   -0.1249 H         1 UNK         0.0000 
    134 H134       10.7463    5.2569    2.2584 H         1 UNK         0.0000 
    135 H135       10.8663    3.4693    2.3164 H         1 UNK         0.0000 
    136 H136       12.7707    3.5181    0.7062 H         1 UNK         0.0000 
    137 H137       13.0270    4.5788    2.1389 H         1 UNK         0.0000 
    138 H138       12.3530    5.4336   -0.7435 H         1 UNK         0.0000 
    139 H139       12.2030    6.5543    0.6575 H         1 UNK         0.0000 
    140 H140       14.3478    6.8955   -0.4647 H         1 UNK         0.0000 
    141 H141       14.5219    6.3887    1.2517 H         1 UNK         0.0000 
    142 H142       15.0978    4.0648    0.5359 H         1 UNK         0.0000 
    143 H143       14.9306    4.5516   -1.1982 H         1 UNK         0.0000 
    144 H144       16.7766    6.2306   -0.8776 H         1 UNK         0.0000 
    145 H145       17.3167    4.5680   -0.4280 H         1 UNK         0.0000 
    146 H146       16.9058    5.7560    0.8621 H         1 UNK         0.0000 
    147 H147        5.1238    1.1821   -2.6955 H         1 UNK         0.0000 
    148 H148        4.5149    2.8723   -2.5567 H         1 UNK         0.0000 
    149 H149        0.9678    0.5060   -4.2176 H         1 UNK         0.0000 
    150 H150        0.7201    2.2538   -3.6845 H         1 UNK         0.0000 
    151 H151        1.8197    2.2590   -6.3034 H         1 UNK         0.0000 
    152 H152       -3.3211    0.6300   -6.7867 H         1 UNK         0.0000 
    153 H153       -2.0564    0.9896   -7.9561 H         1 UNK         0.0000 
    154 H154       -1.8957   -0.8891   -5.5558 H         1 UNK         0.0000 
    155 H155       -0.5299   -0.6851   -6.6898 H         1 UNK         0.0000 
    156 H156       -1.7791   -1.7434   -8.5260 H         1 UNK         0.0000 
    157 H157       -3.3216   -1.6807   -7.5796 H         1 UNK         0.0000 
    158 H158       -1.8659   -5.9820   -8.3761 H         1 UNK         0.0000 
    159 H159       -0.8661   -4.6028   -8.9856 H         1 UNK         0.0000 
    160 H160       -2.6705   -4.5497   -9.1366 H         1 UNK         0.0000 
    161 H161       -1.0390    1.0528   -3.9750 H         1 UNK         0.0000 
    162 H162       -4.5949    1.1960   -5.2553 H         1 UNK         0.0000 
    163 H163       -4.2146    2.8846   -4.7892 H         1 UNK         0.0000 
    164 H164       -5.2843    2.4637   -2.6006 H         1 UNK         0.0000 
    165 H165       -5.8857   -0.6420   -1.2785 H         1 UNK         0.0000 
    166 H166       -6.7805    0.3782   -0.1531 H         1 UNK         0.0000 
    167 H167       -9.2206    0.9725   -3.9705 H         1 UNK         0.0000 
    168 H168       -8.6343    2.6742   -3.6943 H         1 UNK         0.0000 
    169 H169      -10.6739    2.2877   -2.7806 H         1 UNK         0.0000 
@<TRIPOS>BOND
     1    1    2 nc   
     2    1    6 nc   
     3    1   40 nc   
     4    1   42 nc   
     5    1   75 nc   
     6    1   77 nc   
     7    2    3 2    
     8    3    5 am   BACKBONE|DICT|INTERRES
     9    3    4 1    
    10    4   96 1    
    11    4   94 1    
    12    4   95 1    
    13    5    7 1    
    14    5    6 1    
    15    7   98 1    
    16    7    8 1    
    17    7   97 1    
    18    8    9 1    
    19    8  100 1    
    20    8   99 1    
    21    9  102 1    
    22    9   10 1    
    23    9  101 1    
    24   10   11 1    
    25   10   12 1    
    26   10   91 1    
    27   12  103 1    
    28   12   13 am   BACKBONE|DICT|INTERRES
    29   13   15 1    
    30   13   14 2    
    31   15   16 1    
    32   15   17 1    
    33   15   19 1    
    34   17   18 1    
    35   17  104 1    
    36   17  105 1    
    37   18  106 1    
    38   19   20 am   BACKBONE|DICT|INTERRES
    39   19  107 1    
    40   20   22 1    
    41   20   21 2    
    42   22   23 1    
    43   22   24 1    
    44   22   27 1    
    45   24  108 1    
    46   24   25 1    
    47   24   26 1    
    48   25  110 1    
    49   25  111 1    
    50   25  109 1    
    51   26  114 1    
    52   26  113 1    
    53   26  112 1    
    54   27  115 1    
    55   27   28 am   BACKBONE|DICT|INTERRES
    56   28   29 2    
    57   28   30 1    
    58   30  116 1    
    59   30   31 1    
    60   30  117 1    
    61   31  118 1    
    62   31   32 am   BACKBONE|DICT|INTERRES
    63   32   33 2    
    64   32   34 1    
    65   34   35 1    
    66   34   36 1    
    67   34   44 1    
    68   36  120 1    
    69   36   37 1    
    70   36  119 1    
    71   37  121 1    
    72   37   38 1    
    73   37  122 1    
    74   38  123 1    
    75   38   39 1    
    76   38  124 1    
    77   39   40 1    
    78   39   41 am   BACKBONE|DICT|INTERRES
    79   41   43 1    
    80   41   42 2    
    81   43  125 1    
    82   43  126 1    
    83   43  127 1    
    84   44   45 am   BACKBONE|DICT|INTERRES
    85   44  128 1    
    86   45   46 2    
    87   45   47 1    
    88   47   49 1    
    89   47   48 1    
    90   47   61 1    
    91   49  129 1    
    92   49   50 am   BACKBONE|DICT|INTERRES
    93   50   52 1    
    94   50   51 2    
    95   52  130 1    
    96   52   53 1    
    97   52  131 1    
    98   53   54 2    
    99   53  132 1    
   100   54   55 1    
   101   54  133 1    
   102   55  134 1    
   103   55  135 1    
   104   55   56 1    
   105   56  137 1    
   106   56   57 1    
   107   56  136 1    
   108   57  139 1    
   109   57   58 1    
   110   57  138 1    
   111   58  141 1    
   112   58   59 1    
   113   58  140 1    
   114   59   60 1    
   115   59  142 1    
   116   59  143 1    
   117   60  146 1    
   118   60  144 1    
   119   60  145 1    
   120   61   62 1    
   121   61  147 1    
   122   61  148 1    
   123   62   63 1    
   124   63   64 2    
   125   63   65 1    
   126   65  149 1    
   127   65  150 1    
   128   65   66 1    
   129   66   67 am   BACKBONE|DICT|INTERRES
   130   66  151 1    
   131   67   69 1    
   132   67   68 2    
   133   69   70 1    
   134   69   79 1    
   135   69   71 1    
   136   71  152 1    
   137   71   72 1    
   138   71  153 1    
   139   72  154 1    
   140   72   73 1    
   141   72  155 1    
   142   73   74 1    
   143   73  156 1    
   144   73  157 1    
   145   74   75 1    
   146   74   76 am   BACKBONE|DICT|INTERRES
   147   76   78 1    
   148   76   77 2    
   149   78  158 1    
   150   78  159 1    
   151   78  160 1    
   152   79  161 1    
   153   79   80 am   BACKBONE|DICT|INTERRES
   154   80   81 2    
   155   80   82 1    
   156   82   83 1    
   157   82  162 1    
   158   82  163 1    
   159   83  164 1    
   160   83   84 am   BACKBONE|DICT|INTERRES
   161   84   86 1    
   162   84   85 2    
   163   86   88 1    
   164   86   87 1    
   165   86   92 1    
   166   88   90 1    
   167   88   91 1    
   168   88   89 1    
   169   91  166 1    
   170   91  165 1    
   171   92   93 1    
   172   92  167 1    
   173   92  168 1    
   174   93  169 1    
@<TRIPOS>SUBSTRUCTURE
     1 UNK         1 GROUP             0       ****    0 ROOT    
@<TRIPOS>MOLECULE
157_CD_c1
178   182    1
SMALL
USER_CHARGES


@<TRIPOS>ATOM
      1 Fe1         3.3886   -2.6815    3.4883 Fe        1 UNK         0.0000 
      2 C2          7.7532   -4.8684    4.9931 C.3       1 UNK         0.0000 
      3 C3          7.7750   -3.9517    3.7498 C.3       1 UNK         0.0000 
      4 C4          6.3820   -3.4667    3.2678 C.2       1 UNK         0.0000 
      5 O5          5.3476   -3.9308    3.7799 O.co2     1 UNK         0.0000 
      6 N6          6.2549   -2.4802    2.3275 N.am      1 UNK         0.0000 
      7 O7          5.0674   -2.0291    1.9019 O.co2     1 UNK         0.0000 
      8 C8          7.4144   -1.7470    1.7646 C.3       1 UNK         0.0000 
      9 C9          7.1957   -1.0666    0.3892 C.3       1 UNK         0.0000 
     10 C10         8.5170   -0.6419   -0.2487 C.3       1 UNK         0.0000 
     11 C11         8.4929    0.6209   -1.1421 C.3       1 UNK         0.0000 
     12 H12         9.4876    0.5948   -1.5964 H         1 UNK         0.0000 
     13 N13         7.5798    0.6197   -2.3020 N.am      1 UNK         0.0000 
     14 C14         7.7757   -0.1286   -3.4043 C.2       1 UNK         0.0000 
     15 O15         8.5599   -1.0790   -3.4296 O.2       1 UNK         0.0000 
     16 C16         7.0801    0.3249   -4.7241 C.3       1 UNK         0.0000 
     17 H17         6.6645    1.3181   -4.5433 H         1 UNK         0.0000 
     18 C18         8.1219    0.4652   -5.8805 C.3       1 UNK         0.0000 
     19 O19         8.4295   -0.7523   -6.5525 O.3       1 UNK         0.0000 
     20 N20         5.9662   -0.6036   -5.0449 N.3       1 UNK         0.0000 
     21 C21         5.2432   -0.3105   -6.2758 C.3       1 UNK         0.0000 
     22 O22         4.8891    1.0342   -6.5210 O.3       1 UNK         0.0000 
     23 C23         1.2317   -1.7164   -7.1682 C.3       1 UNK         0.0000 
     24 H24         1.7774   -0.8456   -6.7926 H         1 UNK         0.0000 
     25 C25         1.3302   -1.6750   -8.7131 C.3       1 UNK         0.0000 
     26 C26         0.6171   -0.4847   -9.3627 C.3       1 UNK         0.0000 
     27 C27         0.9322   -2.9891   -9.3950 C.3       1 UNK         0.0000 
     28 N28        -0.1218   -1.7027   -6.5767 N.am      1 UNK         0.0000 
     29 C29        -0.3147   -1.8230   -5.2470 C.2       1 UNK         0.0000 
     30 O30         0.6195   -2.0136   -4.4679 O.2       1 UNK         0.0000 
     31 C31        -1.7405   -1.6886   -4.6781 C.3       1 UNK         0.0000 
     32 N32        -1.6649   -1.5308   -3.2162 N.am      1 UNK         0.0000 
     33 C33        -2.7464   -1.3956   -2.4219 C.2       1 UNK         0.0000 
     34 O34        -3.8898   -1.5509   -2.8413 O.2       1 UNK         0.0000 
     35 C35        -2.5385   -0.9550   -0.9468 C.3       1 UNK         0.0000 
     36 C36        -2.4439   -2.1459    0.0746 C.3       1 UNK         0.0000 
     37 C37        -1.0087   -2.5926    0.4278 C.3       1 UNK         0.0000 
     38 C38        -0.8756   -3.3015    1.8168 C.3       1 UNK         0.0000 
     39 N39         0.5130   -3.4898    2.3294 N.am      1 UNK         0.0000 
     40 O40         1.3263   -2.4664    2.0470 O.co2     1 UNK         0.0000 
     41 C41         0.9171   -4.5533    3.1001 C.2       1 UNK         0.0000 
     42 O42         2.0837   -4.5930    3.5223 O.co2     1 UNK         0.0000 
     43 C43        -0.0705   -5.6565    3.5644 C.3       1 UNK         0.0000 
     44 C44         0.4317   -6.4965    4.7662 C.3       1 UNK         0.0000 
     45 N45        -3.5444    0.0782   -0.5907 N.am      1 UNK         0.0000 
     46 C46        -4.7873   -0.0477   -0.0710 C.2       1 UNK         0.0000 
     47 O47        -5.3219   -1.1247    0.1946 O.2       1 UNK         0.0000 
     48 C48        -5.5471    1.2798    0.2165 C.3       1 UNK         0.0000 
     49 H49        -5.2181    1.9884   -0.5442 H         1 UNK         0.0000 
     50 N50        -7.0120    1.1262   -0.0613 N.am      1 UNK         0.0000 
     51 C51        -8.0834    1.7834    0.4626 C.2       1 UNK         0.0000 
     52 O52        -7.9772    2.5023    1.4509 O.2       1 UNK         0.0000 
     53 C53        -9.4647    1.6514   -0.2740 C.3       1 UNK         0.0000 
     54 C54       -10.7599    2.1494    0.4374 C.2       1 UNK         0.0000 
     55 C55       -12.0047    2.2135   -0.1219 C.2       1 UNK         0.0000 
     56 C56       -13.3082    2.6730    0.5752 C.3       1 UNK         0.0000 
     57 C57       -14.5981    2.8181   -0.3079 C.3       1 UNK         0.0000 
     58 C58       -15.9181    3.0879    0.4883 C.3       1 UNK         0.0000 
     59 C59       -17.1922    3.3683   -0.3651 C.3       1 UNK         0.0000 
     60 C60       -18.4936    3.4977    0.4715 C.3       1 UNK         0.0000 
     61 C61       -19.7573    3.8356   -0.3482 C.3       1 UNK         0.0000 
     62 C62        -5.1442    1.9056    1.6030 C.3       1 UNK         0.0000 
     63 O63        -3.6992    1.9506    1.8614 O.3       1 UNK         0.0000 
     64 C64        -3.1863    2.8256    2.7999 C.2       1 UNK         0.0000 
     65 O65        -3.9039    3.6430    3.3786 O.2       1 UNK         0.0000 
     66 C66        -1.6323    2.7722    3.1284 C.3       1 UNK         0.0000 
     67 N67        -1.3216    3.9782    3.9285 N.am      1 UNK         0.0000 
     68 C68        -0.3078    4.4737    4.6697 C.2       1 UNK         0.0000 
     69 O69        -0.5242    5.5449    5.2294 O.2       1 UNK         0.0000 
     70 C70         1.1190    3.8587    4.8684 C.3       1 UNK         0.0000 
     71 H71         1.5401    4.6887    5.4449 H         1 UNK         0.0000 
     72 C72         1.2860    2.7185    5.9224 C.3       1 UNK         0.0000 
     73 C73         1.5372    1.3025    5.3769 C.3       1 UNK         0.0000 
     74 C74         2.5406    0.4642    6.2240 C.3       1 UNK         0.0000 
     75 N75         2.9831   -0.7926    5.5456 N.am      1 UNK         0.0000 
     76 O76         3.1815   -0.6538    4.2324 O.co2     1 UNK         0.0000 
     77 C77         3.1206   -2.0075    6.1509 C.2       1 UNK         0.0000 
     78 O78         3.2805   -2.9747    5.3908 O.co2     1 UNK         0.0000 
     79 C79         3.1792   -2.1708    7.6893 C.3       1 UNK         0.0000 
     80 C80         3.9926   -3.4093    8.1381 C.3       1 UNK         0.0000 
     81 N81         2.0346    3.9239    3.7069 N.am      1 UNK         0.0000 
     82 C82         3.3892    3.9174    3.7538 C.2       1 UNK         0.0000 
     83 O83         4.0389    3.5202    4.7214 O.2       1 UNK         0.0000 
     84 C84         4.1218    4.5909    2.5734 C.3       1 UNK         0.0000 
     85 N85         5.3001    3.8558    2.0704 N.am      1 UNK         0.0000 
     86 C86         6.0057    4.3165    1.0141 C.2       1 UNK         0.0000 
     87 O87         5.6473    5.3324    0.4112 O.2       1 UNK         0.0000 
     88 C88         7.2827    3.6567    0.6644 C.2       1 UNK         0.0000 
     89 C89         8.4830    4.6091    0.8187 C.3       1 UNK         0.0000 
     90 N90         7.2874    2.4557    0.1812 N.2       1 UNK         0.0000 
     91 C91         8.5561    1.9686   -0.3648 C.3       1 UNK         0.0000 
     92 H92         7.3927   -4.3389    5.8704 H         1 UNK         0.0000 
     93 H93         7.1415   -5.7505    4.8313 H         1 UNK         0.0000 
     94 H94         8.7558   -5.2125    5.2251 H         1 UNK         0.0000 
     95 H95         8.2565   -4.4806    2.9271 H         1 UNK         0.0000 
     96 H96         8.3994   -3.0817    3.9605 H         1 UNK         0.0000 
     97 H97         7.7464   -0.9788    2.4755 H         1 UNK         0.0000 
     98 H98         8.2753   -2.4186    1.6620 H         1 UNK         0.0000 
     99 H99         6.6948   -1.7567   -0.2824 H         1 UNK         0.0000 
    100 H100        6.5326   -0.2142    0.5071 H         1 UNK         0.0000 
    101 H101        8.8851   -1.4824   -0.8377 H         1 UNK         0.0000 
    102 H102        9.2778   -0.4918    0.5167 H         1 UNK         0.0000 
    103 H103        6.8482    1.3157   -2.3162 H         1 UNK         0.0000 
    104 H104        9.0619    0.8822   -5.5141 H         1 UNK         0.0000 
    105 H105        7.7443    1.1615   -6.6296 H         1 UNK         0.0000 
    106 H106        9.3704   -0.7634   -6.7477 H         1 UNK         0.0000 
    107 H107        6.4663   -1.4735   -5.2053 H         1 UNK         0.0000 
    108 H108        2.3918   -1.5440   -8.9331 H         1 UNK         0.0000 
    109 H109       -0.4652   -0.5807   -9.2996 H         1 UNK         0.0000 
    110 H110        0.9044    0.4540   -8.8923 H         1 UNK         0.0000 
    111 H111        0.8798   -0.4127  -10.4192 H         1 UNK         0.0000 
    112 H112        1.2033   -2.9693  -10.4533 H         1 UNK         0.0000 
    113 H113       -0.1390   -3.1787   -9.3240 H         1 UNK         0.0000 
    114 H114        1.4586   -3.8269   -8.9392 H         1 UNK         0.0000 
    115 H115       -0.9037   -1.4925   -7.1806 H         1 UNK         0.0000 
    116 H116       -2.2145   -0.8129   -5.1193 H         1 UNK         0.0000 
    117 H117       -2.3309   -2.5596   -4.9575 H         1 UNK         0.0000 
    118 H118       -0.7149   -1.4912   -2.8608 H         1 UNK         0.0000 
    119 H119       -1.4074   -2.6934    2.5556 H         1 UNK         0.0000 
    120 H120       -1.4420   -4.2372    1.7875 H         1 UNK         0.0000 
    121 H121       -1.0292   -5.2085    3.8457 H         1 UNK         0.0000 
    122 H122       -0.2583   -6.3152    2.7154 H         1 UNK         0.0000 
    123 H123        1.3949   -6.9623    4.5850 H         1 UNK         0.0000 
    124 H124       -0.2650   -7.2966    4.9915 H         1 UNK         0.0000 
    125 H125        0.5138   -5.8923    5.6638 H         1 UNK         0.0000 
    126 H126       -3.2508    1.0016   -0.8687 H         1 UNK         0.0000 
    127 H127       -7.1806    0.4537   -0.7970 H         1 UNK         0.0000 
    128 H128       -9.3741    2.2221   -1.1988 H         1 UNK         0.0000 
    129 H129       -9.6095    0.6069   -0.5450 H         1 UNK         0.0000 
    130 H130      -10.6530    2.4572    1.4701 H         1 UNK         0.0000 
    131 H131      -12.1313    1.9107   -1.1523 H         1 UNK         0.0000 
    132 H132      -13.5165    1.9550    1.3692 H         1 UNK         0.0000 
    133 H133      -13.1086    3.6286    1.0618 H         1 UNK         0.0000 
    134 H134      -14.7395    1.9100   -0.8959 H         1 UNK         0.0000 
    135 H135      -14.4551    3.6207   -1.0333 H         1 UNK         0.0000 
    136 H136      -16.1216    2.2308    1.1330 H         1 UNK         0.0000 
    137 H137      -15.7694    3.9342    1.1611 H         1 UNK         0.0000 
    138 H138      -17.0533    4.2867   -0.9384 H         1 UNK         0.0000 
    139 H139      -17.3295    2.5744   -1.1011 H         1 UNK         0.0000 
    140 H140      -18.3663    4.2645    1.2372 H         1 UNK         0.0000 
    141 H141      -18.6755    2.5674    1.0120 H         1 UNK         0.0000 
    142 H142      -19.6727    4.8020   -0.8469 H         1 UNK         0.0000 
    143 H143      -19.9620    3.0835   -1.1110 H         1 UNK         0.0000 
    144 H144      -20.6407    3.8863    0.2926 H         1 UNK         0.0000 
    145 H145       -5.6523    1.3626    2.4035 H         1 UNK         0.0000 
    146 H146       -5.5705    2.9135    1.6349 H         1 UNK         0.0000 
    147 H147       -1.0030    2.7673    2.2379 H         1 UNK         0.0000 
    148 H148       -1.3935    1.8819    3.7131 H         1 UNK         0.0000 
    149 H149       -2.1474    4.5723    3.9705 H         1 UNK         0.0000 
    150 H150        2.1358    2.9977    6.5476 H         1 UNK         0.0000 
    151 H151        0.4303    2.7009    6.5953 H         1 UNK         0.0000 
    152 H152        0.6094    0.7453    5.2989 H         1 UNK         0.0000 
    153 H153        1.9373    1.4092    4.3770 H         1 UNK         0.0000 
    154 H154        2.1192    0.3378    7.2311 H         1 UNK         0.0000 
    155 H155        3.4331    1.0825    6.3678 H         1 UNK         0.0000 
    156 H156        2.1681   -2.2370    8.0844 H         1 UNK         0.0000 
    157 H157        3.6188   -1.2797    8.1324 H         1 UNK         0.0000 
    158 H158        3.9832   -3.5212    9.2188 H         1 UNK         0.0000 
    159 H159        3.5910   -4.3275    7.7320 H         1 UNK         0.0000 
    160 H160        5.0370   -3.3476    7.8528 H         1 UNK         0.0000 
    161 H161        1.6018    4.2311    2.8505 H         1 UNK         0.0000 
    162 H162        3.4325    4.8268    1.7624 H         1 UNK         0.0000 
    163 H163        4.4864    5.5460    2.9578 H         1 UNK         0.0000 
    164 H164        5.5838    3.0296    2.5763 H         1 UNK         0.0000 
    165 H165        8.4396    5.3938    0.0645 H         1 UNK         0.0000 
    166 H166        9.4544    4.1298    0.7147 H         1 UNK         0.0000 
    167 H167        8.4934    5.0990    1.7927 H         1 UNK         0.0000 
    168 H168        8.9698    2.7005   -1.0679 H         1 UNK         0.0000 
    169 H169        9.2800    1.8496    0.4455 H         1 UNK         0.0000 
    170 H170        4.3404   -0.9209   -6.2639 H         1 UNK         0.0000 
    171 H171        5.8326   -0.6384   -7.1372 H         1 UNK         0.0000 
    172 H172        5.1059    1.2445   -7.4329 H         1 UNK         0.0000 
    173 H173        1.7833   -2.6014   -6.8338 H         1 UNK         0.0000 
    174 H174       -0.5639   -3.2181   -0.3395 H         1 UNK         0.0000 
    175 H175       -0.4225   -1.6847    0.4379 H         1 UNK         0.0000 
    176 H176       -1.6038   -0.3880   -0.9156 H         1 UNK         0.0000 
    177 H177       -2.8898   -1.8181    1.0105 H         1 UNK         0.0000 
    178 H178       -3.0502   -2.9913   -0.2610 H         1 UNK         0.0000 
@<TRIPOS>BOND
     1    1    5 nc   
     2    1    7 nc   
     3    1   40 nc   
     4    1   42 nc   
     5    1   76 nc   
     6    1   78 nc   
     7    2   94 1    
     8    2   92 1    
     9    2    3 1    
    10    2   93 1    
    11    3   96 1    
    12    3    4 1    
    13    3   95 1    
    14    4    5 2    
    15    4    6 am   BACKBONE|DICT|INTERRES
    16    6    7 1    
    17    6    8 1    
    18    8   97 1    
    19    8    9 1    
    20    8   98 1    
    21    9   99 1    
    22    9   10 1    
    23    9  100 1    
    24   10  102 1    
    25   10   11 1    
    26   10  101 1    
    27   11   12 1    
    28   11   91 1    
    29   11   13 1    
    30   13   14 am   BACKBONE|DICT|INTERRES
    31   13  103 1    
    32   14   15 2    
    33   14   16 1    
    34   16   17 1    
    35   16   18 1    
    36   16   20 1    
    37   18  104 1    
    38   18   19 1    
    39   18  105 1    
    40   19  106 1    
    41   20  107 1    
    42   20   21 1    
    43   21   22 1    
    44   21  170 1    
    45   21  171 1    
    46   22  172 1    
    47   23   28 1    
    48   23   24 1    
    49   23   25 1    
    50   23  173 1    
    51   25   26 1    
    52   25   27 1    
    53   25  108 1    
    54   26  109 1    
    55   26  110 1    
    56   26  111 1    
    57   27  114 1    
    58   27  112 1    
    59   27  113 1    
    60   28   29 am   BACKBONE|DICT|INTERRES
    61   28  115 1    
    62   29   31 1    
    63   29   30 2    
    64   31   32 1    
    65   31  116 1    
    66   31  117 1    
    67   32   33 am   BACKBONE|DICT|INTERRES
    68   32  118 1    
    69   33   35 1    
    70   33   34 2    
    71   35   45 1    
    72   35   36 1    
    73   35  176 1    
    74   36   37 1    
    75   36  177 1    
    76   36  178 1    
    77   37   38 1    
    78   37  174 1    
    79   37  175 1    
    80   38  119 1    
    81   38   39 1    
    82   38  120 1    
    83   39   41 am   BACKBONE|DICT|INTERRES
    84   39   40 1    
    85   41   42 2    
    86   41   43 1    
    87   43  121 1    
    88   43   44 1    
    89   43  122 1    
    90   44  123 1    
    91   44  125 1    
    92   44  124 1    
    93   45   46 am   BACKBONE|DICT|INTERRES
    94   45  126 1    
    95   46   48 1    
    96   46   47 2    
    97   48   49 1    
    98   48   62 1    
    99   48   50 1    
   100   50   51 am   BACKBONE|DICT|INTERRES
   101   50  127 1    
   102   51   52 2    
   103   51   53 1    
   104   53   54 1    
   105   53  128 1    
   106   53  129 1    
   107   54  130 1    
   108   54   55 2    
   109   55   56 1    
   110   55  131 1    
   111   56  132 1    
   112   56   57 1    
   113   56  133 1    
   114   57   58 1    
   115   57  134 1    
   116   57  135 1    
   117   58  137 1    
   118   58   59 1    
   119   58  136 1    
   120   59  138 1    
   121   59   60 1    
   122   59  139 1    
   123   60  141 1    
   124   60  140 1    
   125   60   61 1    
   126   61  144 1    
   127   61  142 1    
   128   61  143 1    
   129   62   63 1    
   130   62  145 1    
   131   62  146 1    
   132   63   64 1    
   133   64   65 2    
   134   64   66 1    
   135   66   67 1    
   136   66  148 1    
   137   66  147 1    
   138   67  149 1    
   139   67   68 am   BACKBONE|DICT|INTERRES
   140   68   70 1    
   141   68   69 2    
   142   70   71 1    
   143   70   72 1    
   144   70   81 1    
   145   72   73 1    
   146   72  150 1    
   147   72  151 1    
   148   73   74 1    
   149   73  153 1    
   150   73  152 1    
   151   74  155 1    
   152   74  154 1    
   153   74   75 1    
   154   75   77 am   BACKBONE|DICT|INTERRES
   155   75   76 1    
   156   77   79 1    
   157   77   78 2    
   158   79  156 1    
   159   79   80 1    
   160   79  157 1    
   161   80  160 1    
   162   80  158 1    
   163   80  159 1    
   164   81  161 1    
   165   81   82 am   BACKBONE|DICT|INTERRES
   166   82   83 2    
   167   82   84 1    
   168   84  163 1    
   169   84   85 1    
   170   84  162 1    
   171   85  164 1    
   172   85   86 am   BACKBONE|DICT|INTERRES
   173   86   87 2    
   174   86   88 1    
   175   88   89 1    
   176   88   90 2    
   177   89  167 1    
   178   89  165 1    
   179   89  166 1    
   180   90   91 1    
   181   91  169 1    
   182   91  168 1    
@<TRIPOS>SUBSTRUCTURE
     1 UNK         1 GROUP             0       ****    0 ROOT    
@<TRIPOS>MOLECULE
158_A_c1
77   84    1
SMALL
USER_CHARGES


@<TRIPOS>ATOM
      1 Fe1         0.7032   -3.2214   -0.8426 Fe        1 UNK         0.0000 
      2 C2          0.5919   -3.8793    4.1899 C.ar      1 UNK         0.0000 
      3 C3          0.9456   -5.1710    3.8417 C.ar      1 UNK         0.0000 
      4 C4          1.4667   -5.4220    2.5822 C.ar      1 UNK         0.0000 
      5 C5          1.6707   -4.3860    1.6675 C.ar      1 UNK         0.0000 
      6 O6          2.1695   -4.7484    0.5454 O.co2     1 UNK         0.0000 
      7 C7          1.2939   -3.0512    2.0076 C.ar      1 UNK         0.0000 
      8 O8          1.4177   -2.1075    1.1458 O.co2     1 UNK         0.0000 
      9 C9          0.7257   -2.7971    3.2954 C.ar      1 UNK         0.0000 
     10 C10         0.2173   -1.4396    3.8007 C.2       1 UNK         0.0000 
     11 O11        -0.3554   -1.3587    4.9007 O.2       1 UNK         0.0000 
     12 N12         0.4117   -0.3187    3.0784 N.am      1 UNK         0.0000 
     13 C13        -0.1108    0.9841    3.5324 C.3       1 UNK         0.0000 
     14 C14         0.3628    2.2549    2.7972 C.3       1 UNK         0.0000 
     15 C15        -0.7968    3.2448    2.4596 C.3       1 UNK         0.0000 
     16 N16        -1.1058    3.3855    1.0223 N.am      1 UNK         0.0000 
     17 C17        -0.1596    3.9222    0.1958 C.2       1 UNK         0.0000 
     18 O18         0.8292    4.5160    0.6479 O.2       1 UNK         0.0000 
     19 C19        -0.2840    3.7820   -1.3577 C.3       1 UNK         0.0000 
     20 H20        -1.2687    3.4009   -1.6026 H         1 UNK         0.0000 
     21 C21        -0.2359    5.2203   -1.9644 C.3       1 UNK         0.0000 
     22 H22        -0.9362    5.8589   -1.4163 H         1 UNK         0.0000 
     23 O23        -0.7309    5.2047   -3.2928 O.3       1 UNK         0.0000 
     24 C24         1.1276    5.9417   -1.9865 C.3       1 UNK         0.0000 
     25 N25         0.6489    2.8199   -1.9966 N.am      1 UNK         0.0000 
     26 C26         0.9356    1.5994   -1.4972 C.2       1 UNK         0.0000 
     27 O27         0.5506    1.2664   -0.3733 O.2       1 UNK         0.0000 
     28 C28         1.7701    0.6354   -2.3298 C.ar      1 UNK         0.0000 
     29 C29         1.4294   -0.7435   -2.3912 C.ar      1 UNK         0.0000 
     30 O30         0.2497   -1.1137   -2.0593 O.co2     1 UNK         0.0000 
     31 C31         2.3983   -1.6809   -2.8300 C.ar      1 UNK         0.0000 
     32 O32         2.2672   -2.9501   -2.7087 O.co2     1 UNK         0.0000 
     33 C33         3.5901   -1.2154   -3.3855 C.ar      1 UNK         0.0000 
     34 C34         3.8459    0.1524   -3.5016 C.ar      1 UNK         0.0000 
     35 C35         2.9537    1.0718   -2.9518 C.ar      1 UNK         0.0000 
     36 C36        -2.4951    3.0698    0.6173 C.3       1 UNK         0.0000 
     37 C37        -2.7658    1.7069   -0.0734 C.3       1 UNK         0.0000 
     38 C38        -2.6141    0.4528    0.8007 C.3       1 UNK         0.0000 
     39 N39        -2.6469   -0.7895    0.0430 N.am      1 UNK         0.0000 
     40 C40        -3.6011   -1.3962   -0.6726 C.2       1 UNK         0.0000 
     41 O41        -4.7573   -0.9456   -0.7546 O.2       1 UNK         0.0000 
     42 C42        -3.1276   -2.6177   -1.4704 C.ar      1 UNK         0.0000 
     43 C43        -1.9561   -3.3640   -1.1362 C.ar      1 UNK         0.0000 
     44 O44        -1.3328   -3.1357   -0.0437 O.co2     1 UNK         0.0000 
     45 C45        -1.4447   -4.3248   -2.0430 C.ar      1 UNK         0.0000 
     46 O46        -0.3251   -4.9249   -1.8853 O.co2     1 UNK         0.0000 
     47 C47        -2.1480   -4.6025   -3.2147 C.ar      1 UNK         0.0000 
     48 C48        -3.3514   -3.9618   -3.4952 C.ar      1 UNK         0.0000 
     49 C49        -3.8300   -2.9743   -2.6364 C.ar      1 UNK         0.0000 
     50 H50         0.1896   -3.7142    5.1778 H         1 UNK         0.0000 
     51 H51         0.8280   -5.9794    4.5450 H         1 UNK         0.0000 
     52 H52         1.7130   -6.4344    2.2953 H         1 UNK         0.0000 
     53 H53         0.7552   -0.5123    2.1319 H         1 UNK         0.0000 
     54 H54         0.2022    1.1027    4.5729 H         1 UNK         0.0000 
     55 H55        -1.1996    0.9207    3.5415 H         1 UNK         0.0000 
     56 H56         0.9539    1.9931    1.9222 H         1 UNK         0.0000 
     57 H57         1.0736    2.7799    3.4369 H         1 UNK         0.0000 
     58 H58        -0.5204    4.2383    2.8182 H         1 UNK         0.0000 
     59 H59        -1.6875    2.9866    3.0320 H         1 UNK         0.0000 
     60 H60        -0.7501    6.1034   -3.6277 H         1 UNK         0.0000 
     61 H61         1.4365    6.2372   -0.9837 H         1 UNK         0.0000 
     62 H62         1.0882    6.8599   -2.5708 H         1 UNK         0.0000 
     63 H63         1.9135    5.3087   -2.3963 H         1 UNK         0.0000 
     64 H64         0.8875    2.9825   -2.9549 H         1 UNK         0.0000 
     65 H65         4.3165   -1.9404   -3.7282 H         1 UNK         0.0000 
     66 H66         4.7551    0.4739   -3.9821 H         1 UNK         0.0000 
     67 H67         3.2034    2.1214   -2.9739 H         1 UNK         0.0000 
     68 H68        -3.1281    3.1178    1.5035 H         1 UNK         0.0000 
     69 H69        -2.8602    3.8644   -0.0348 H         1 UNK         0.0000 
     70 H70        -2.1610    1.5800   -0.9688 H         1 UNK         0.0000 
     71 H71        -3.7971    1.7159   -0.4256 H         1 UNK         0.0000 
     72 H72        -3.3173    0.4394    1.6339 H         1 UNK         0.0000 
     73 H73        -1.6294    0.4861    1.2641 H         1 UNK         0.0000 
     74 H74        -1.8313   -1.4148    0.0773 H         1 UNK         0.0000 
     75 H75        -1.7410   -5.3202   -3.9141 H         1 UNK         0.0000 
     76 H76        -3.8948   -4.2218   -4.3869 H         1 UNK         0.0000 
     77 H77        -4.7433   -2.4564   -2.8868 H         1 UNK         0.0000 
@<TRIPOS>BOND
     1    1    6 nc   
     2    1    8 nc   
     3    1   30 nc   
     4    1   32 nc   
     5    1   44 nc   
     6    1   46 nc   
     7    2   50 1    
     8    2    3 ar   
     9    2    9 ar   
    10    3   51 1    
    11    3    4 ar   
    12    4    5 ar   
    13    4   52 1    
    14    5    7 ar   
    15    5    6 1    
    16    7    9 ar   
    17    7    8 1    
    18    9   10 1    
    19   10   11 2    
    20   10   12 am   BACKBONE|DICT|INTERRES
    21   12   13 1    
    22   12   53 1    
    23   13   55 1    
    24   13   54 1    
    25   13   14 1    
    26   14   57 1    
    27   14   15 1    
    28   14   56 1    
    29   15   58 1    
    30   15   59 1    
    31   15   16 1    
    32   16   17 am   BACKBONE|DICT|INTERRES
    33   16   36 1    
    34   17   18 2    
    35   17   19 1    
    36   19   20 1    
    37   19   21 1    
    38   19   25 1    
    39   21   24 1    
    40   21   22 1    
    41   21   23 1    
    42   23   60 1    
    43   24   61 1    
    44   24   62 1    
    45   24   63 1    
    46   25   26 am   BACKBONE|DICT|INTERRES
    47   25   64 1    
    48   26   27 2    
    49   26   28 1    
    50   28   29 ar   
    51   28   35 ar   
    52   29   30 1    
    53   29   31 ar   
    54   31   32 1    
    55   31   33 ar   
    56   33   34 ar   
    57   33   65 1    
    58   34   35 ar   
    59   34   66 1    
    60   35   67 1    
    61   36   68 1    
    62   36   37 1    
    63   36   69 1    
    64   37   38 1    
    65   37   70 1    
    66   37   71 1    
    67   38   73 1    
    68   38   72 1    
    69   38   39 1    
    70   39   74 1    
    71   39   40 am   BACKBONE|DICT|INTERRES
    72   40   41 2    
    73   40   42 1    
    74   42   43 ar   
    75   42   49 ar   
    76   43   44 1    
    77   43   45 ar   
    78   45   46 1    
    79   45   47 ar   
    80   47   48 ar   
    81   47   75 1    
    82   48   49 ar   
    83   48   76 1    
    84   49   77 1    
@<TRIPOS>SUBSTRUCTURE
     1 UNK         1 GROUP             0       ****    0 ROOT    
@<TRIPOS>MOLECULE
158_c1
74   82    1
SMALL
USER_CHARGES


@<TRIPOS>ATOM
      1 Fe1         0.5752    2.8058    1.1986 Fe        1 UNK         0.0000 
      2 C2         -3.2349    2.0876   -2.1618 C.ar      1 UNK         0.0000 
      3 C3         -3.7879    3.1200   -1.4061 C.ar      1 UNK         0.0000 
      4 C4         -2.9791    3.8748   -0.5645 C.ar      1 UNK         0.0000 
      5 C5         -1.6310    3.5702   -0.4502 C.ar      1 UNK         0.0000 
      6 O6         -0.9142    4.2527    0.3364 O.co2     1 UNK         0.0000 
      7 C7         -1.0705    2.4980   -1.1692 C.ar      1 UNK         0.0000 
      8 O8          0.1436    2.2228   -0.9090 O.co2     1 UNK         0.0000 
      9 C9         -1.8764    1.7613   -2.0808 C.ar      1 UNK         0.0000 
     10 C10        -1.3814    0.6560   -3.0058 C.2       1 UNK         0.0000 
     11 O11        -2.0483    0.2901   -3.9855 O.2       1 UNK         0.0000 
     12 N12        -0.1933    0.1130   -2.7432 N.am      1 UNK         0.0000 
     13 C13         0.5587   -0.7700   -3.6516 C.3       1 UNK         0.0000 
     14 C14         0.3651   -2.2852   -3.4101 C.3       1 UNK         0.0000 
     15 C15         1.5099   -2.9752   -2.6387 C.3       1 UNK         0.0000 
     16 N16         1.4696   -2.8400   -1.1572 N.am      1 UNK         0.0000 
     17 C17         0.5860   -3.6420   -0.4831 C.2       1 UNK         0.0000 
     18 O18         0.0339   -4.5922   -1.0694 O.2       1 UNK         0.0000 
     19 C19         0.2097   -3.4971    1.0218 C.3       1 UNK         0.0000 
     20 H20        -0.6992   -4.0885    1.1211 H         1 UNK         0.0000 
     21 N21        -0.1961   -2.1934    1.4304 N.2       1 UNK         0.0000 
     22 C22         0.2526   -2.0401    2.6187 C.2       1 UNK         0.0000 
     23 O23         0.9766   -3.1020    3.0987 O.3       1 UNK         0.0000 
     24 C24         1.2726   -3.9610    2.0164 C.3       1 UNK         0.0000 
     25 H25         2.2998   -3.7641    1.6943 H         1 UNK         0.0000 
     26 C26         1.1214   -5.4256    2.4428 C.3       1 UNK         0.0000 
     27 C27         0.0110   -0.8802    3.4969 C.ar      1 UNK         0.0000 
     28 C28         0.0558    0.4243    2.9871 C.ar      1 UNK         0.0000 
     29 O29         0.6240    0.7093    1.8934 O.co2     1 UNK         0.0000 
     30 C30        -0.5071    1.4931    3.6930 C.ar      1 UNK         0.0000 
     31 O31        -0.5993    2.6118    3.1045 O.co2     1 UNK         0.0000 
     32 C32        -0.9796    1.3079    4.9817 C.ar      1 UNK         0.0000 
     33 C33        -0.8885    0.0440    5.5692 C.ar      1 UNK         0.0000 
     34 C34        -0.4234   -1.0501    4.8211 C.ar      1 UNK         0.0000 
     35 C35         2.3803   -1.8488   -0.4954 C.3       1 UNK         0.0000 
     36 C36         3.4675   -1.1995   -1.4073 C.3       1 UNK         0.0000 
     37 C37         4.6376   -0.5004   -0.7063 C.3       1 UNK         0.0000 
     38 N38         4.2567    0.5880    0.1863 N.am      1 UNK         0.0000 
     39 C39         5.0825    1.2705    0.9765 C.2       1 UNK         0.0000 
     40 O40         6.2913    0.9821    1.0630 O.2       1 UNK         0.0000 
     41 C41         4.4464    2.3589    1.8075 C.ar      1 UNK         0.0000 
     42 C42         3.1855    2.9443    1.5261 C.ar      1 UNK         0.0000 
     43 O43         2.3482    2.5560    0.6409 O.co2     1 UNK         0.0000 
     44 C44         2.6612    3.9026    2.3879 C.ar      1 UNK         0.0000 
     45 O45         1.4704    4.2149    2.1481 O.co2     1 UNK         0.0000 
     46 C46         3.3146    4.2861    3.5478 C.ar      1 UNK         0.0000 
     47 C47         4.5421    3.6997    3.8503 C.ar      1 UNK         0.0000 
     48 C48         5.1075    2.7506    2.9848 C.ar      1 UNK         0.0000 
     49 H49        -3.8777    1.5254   -2.8222 H         1 UNK         0.0000 
     50 H50        -4.8389    3.3376   -1.4871 H         1 UNK         0.0000 
     51 H51        -3.3948    4.6696    0.0303 H         1 UNK         0.0000 
     52 H52         0.2264    0.6037   -1.9392 H         1 UNK         0.0000 
     53 H53         1.6073   -0.4795   -3.6675 H         1 UNK         0.0000 
     54 H54         0.2449   -0.5685   -4.6805 H         1 UNK         0.0000 
     55 H55        -0.6049   -2.4968   -2.9539 H         1 UNK         0.0000 
     56 H56         0.3189   -2.7634   -4.3938 H         1 UNK         0.0000 
     57 H57         2.4488   -2.6341   -3.0636 H         1 UNK         0.0000 
     58 H58         1.4984   -4.0384   -2.8902 H         1 UNK         0.0000 
     59 H59         1.3300   -6.0878    1.5988 H         1 UNK         0.0000 
     60 H60         1.8105   -5.6811    3.2489 H         1 UNK         0.0000 
     61 H61         0.1056   -5.6201    2.7801 H         1 UNK         0.0000 
     62 H62        -1.3819    2.1544    5.5089 H         1 UNK         0.0000 
     63 H63        -1.2374   -0.0950    6.5783 H         1 UNK         0.0000 
     64 H64        -0.4452   -2.0384    5.2482 H         1 UNK         0.0000 
     65 H65         1.8266   -1.0555    0.0229 H         1 UNK         0.0000 
     66 H66         2.9184   -2.3686    0.2992 H         1 UNK         0.0000 
     67 H67         2.9984   -0.4711   -2.0671 H         1 UNK         0.0000 
     68 H68         3.9602   -1.9501   -2.0323 H         1 UNK         0.0000 
     69 H69         5.3356   -0.1180   -1.4632 H         1 UNK         0.0000 
     70 H70         5.1858   -1.2434   -0.1187 H         1 UNK         0.0000 
     71 H71         3.3416    1.0654    0.1590 H         1 UNK         0.0000 
     72 H72         2.8275    4.9410    4.2515 H         1 UNK         0.0000 
     73 H73         5.0390    3.9327    4.7753 H         1 UNK         0.0000 
     74 H74         6.0407    2.2767    3.2545 H         1 UNK         0.0000 
@<TRIPOS>BOND
     1    1    6 nc   
     2    1    8 nc   
     3    1   29 nc   
     4    1   31 nc   
     5    1   43 nc   
     6    1   45 nc   
     7    2    9 ar   
     8    2    3 ar   
     9    2   49 1    
    10    3    4 ar   
    11    3   50 1    
    12    4    5 ar   
    13    4   51 1    
    14    5    6 1    
    15    5    7 ar   
    16    7    8 1    
    17    7    9 ar   
    18    9   10 1    
    19   10   12 am   BACKBONE|DICT|INTERRES
    20   10   11 2    
    21   12   52 1    
    22   12   13 1    
    23   13   14 1    
    24   13   53 1    
    25   13   54 1    
    26   14   55 1    
    27   14   15 1    
    28   14   56 1    
    29   15   16 1    
    30   15   57 1    
    31   15   58 1    
    32   16   35 1    
    33   16   17 am   BACKBONE|DICT|INTERRES
    34   17   19 1    
    35   17   18 2    
    36   19   20 1    
    37   19   21 1    
    38   19   24 1    
    39   21   22 2    
    40   22   23 1    
    41   22   27 1    
    42   23   24 1    
    43   24   25 1    
    44   24   26 1    
    45   26   61 1    
    46   26   60 1    
    47   26   59 1    
    48   27   34 ar   
    49   27   28 ar   
    50   28   30 ar   
    51   28   29 1    
    52   30   32 ar   
    53   30   31 1    
    54   32   62 1    
    55   32   33 ar   
    56   33   63 1    
    57   33   34 ar   
    58   34   64 1    
    59   35   65 1    
    60   35   66 1    
    61   35   36 1    
    62   36   37 1    
    63   36   67 1    
    64   36   68 1    
    65   37   70 1    
    66   37   38 1    
    67   37   69 1    
    68   38   39 am   BACKBONE|DICT|INTERRES
    69   38   71 1    
    70   39   40 2    
    71   39   41 1    
    72   41   48 ar   
    73   41   42 ar   
    74   42   44 ar   
    75   42   43 1    
    76   44   46 ar   
    77   44   45 1    
    78   46   47 ar   
    79   46   72 1    
    80   47   73 1    
    81   47   48 ar   
    82   48   74 1    
@<TRIPOS>SUBSTRUCTURE
     1 UNK         1 GROUP             0       ****    0 ROOT    
@<TRIPOS>MOLECULE
159_c1
177   182    1
SMALL
USER_CHARGES


@<TRIPOS>ATOM
      1 Fe1         3.5363   -3.4302    5.5131 Fe        1 UNK         0.0000 
      2 C2          8.1534   -4.6031    6.9294 C.3       1 UNK         0.0000 
      3 C3          7.7209   -5.0601    5.5121 C.3       1 UNK         0.0000 
      4 C4          6.3897   -4.4081    5.0768 C.2       1 UNK         0.0000 
      5 O5          5.3693   -4.5521    5.7643 O.co2     1 UNK         0.0000 
      6 N6          6.2422   -3.5838    4.0113 N.am      1 UNK         0.0000 
      7 O7          5.1079   -2.9096    3.8705 O.co2     1 UNK         0.0000 
      8 C8          7.2199   -3.3385    2.9421 C.3       1 UNK         0.0000 
      9 C9          6.6361   -3.3920    1.4981 C.3       1 UNK         0.0000 
     10 C10         7.6381   -3.1257    0.3587 C.3       1 UNK         0.0000 
     11 C11         7.9053   -1.6523   -0.0756 C.3       1 UNK         0.0000 
     12 H12         8.7126   -1.7548   -0.8083 H         1 UNK         0.0000 
     13 N13         6.8374   -0.9560   -0.8337 N.am      1 UNK         0.0000 
     14 C14         6.4016   -1.3405   -2.0536 C.2       1 UNK         0.0000 
     15 O15         6.5946   -2.4668   -2.4867 O.2       1 UNK         0.0000 
     16 C16         5.7761   -0.2303   -2.9439 C.3       1 UNK         0.0000 
     17 H17         5.7778    0.6646   -2.3182 H         1 UNK         0.0000 
     18 C18         6.6169    0.1798   -4.2008 C.3       1 UNK         0.0000 
     19 O19         6.9879   -0.8588   -5.0919 O.3       1 UNK         0.0000 
     20 N20         4.3436   -0.3611   -3.2430 N.am      1 UNK         0.0000 
     21 C21         3.7333   -1.1661   -4.1288 C.2       1 UNK         0.0000 
     22 O22         4.2901   -2.0467   -4.7698 O.2       1 UNK         0.0000 
     23 C23         2.2432   -0.8085   -4.3877 C.3       1 UNK         0.0000 
     24 H24         2.2874    0.2539   -4.6508 H         1 UNK         0.0000 
     25 C25         1.6753   -1.5227   -5.6577 C.3       1 UNK         0.0000 
     26 C26         0.4255   -0.7906   -6.1756 C.3       1 UNK         0.0000 
     27 C27         1.4133   -3.0389   -5.5359 C.3       1 UNK         0.0000 
     28 N28         1.3335   -0.8437   -3.2209 N.am      1 UNK         0.0000 
     29 C29         1.1298   -1.8512   -2.3534 C.2       1 UNK         0.0000 
     30 O30         1.7990   -2.8795   -2.3486 O.2       1 UNK         0.0000 
     31 C31         0.0072   -1.6594   -1.3166 C.3       1 UNK         0.0000 
     32 N32        -0.4344   -2.9848   -0.8929 N.am      1 UNK         0.0000 
     33 C33        -1.4300   -3.3133   -0.0556 C.2       1 UNK         0.0000 
     34 O34        -1.8023   -4.4769    0.0571 O.2       1 UNK         0.0000 
     35 C35        -2.1638   -2.2388    0.7836 C.3       1 UNK         0.0000 
     36 H36        -1.6693   -1.2859    0.6256 H         1 UNK         0.0000 
     37 C37        -2.1468   -2.5801    2.2947 C.3       1 UNK         0.0000 
     38 C38        -0.7157   -2.7512    2.8716 C.3       1 UNK         0.0000 
     39 C39        -0.6736   -3.5349    4.2089 C.3       1 UNK         0.0000 
     40 N40         0.6787   -3.9317    4.6555 N.am      1 UNK         0.0000 
     41 O41         1.7159   -3.2554    4.1514 O.co2     1 UNK         0.0000 
     42 C42         0.9242   -4.8355    5.6190 C.2       1 UNK         0.0000 
     43 O43         2.1172   -4.9583    5.8844 O.co2     1 UNK         0.0000 
     44 C44        -0.1599   -5.5315    6.4660 C.3       1 UNK         0.0000 
     45 C45        -0.0654   -5.1169    7.9609 C.3       1 UNK         0.0000 
     46 N46        -3.5027   -2.1956    0.2051 N.am      1 UNK         0.0000 
     47 C47        -4.4665   -1.2663    0.1750 C.2       1 UNK         0.0000 
     48 O48        -5.3848   -1.4117   -0.6349 O.2       1 UNK         0.0000 
     49 C49        -4.4720   -0.0218    1.1117 C.3       1 UNK         0.0000 
     50 H50        -4.5207   -0.3594    2.1475 H         1 UNK         0.0000 
     51 N51        -5.6939    0.7066    0.7557 N.am      1 UNK         0.0000 
     52 C52        -6.7278    1.0594    1.5263 C.2       1 UNK         0.0000 
     53 O53        -6.7448    0.8766    2.7414 O.2       1 UNK         0.0000 
     54 C54        -7.9055    1.6749    0.7459 C.3       1 UNK         0.0000 
     55 C55        -9.0905    2.1756    1.5671 C.2       1 UNK         0.0000 
     56 C56       -10.0100    3.0340    1.0799 C.2       1 UNK         0.0000 
     57 C57       -11.1969    3.6024    1.8402 C.3       1 UNK         0.0000 
     58 C58       -12.5428    3.5123    1.0830 C.3       1 UNK         0.0000 
     59 C59       -13.6541    4.3219    1.7852 C.3       1 UNK         0.0000 
     60 C60       -14.9749    4.4489    0.9977 C.3       1 UNK         0.0000 
     61 C61       -15.7787    3.1395    0.8731 C.3       1 UNK         0.0000 
     62 C62       -17.1388    3.3458    0.1804 C.3       1 UNK         0.0000 
     63 C63        -3.2500    0.9141    0.8811 C.3       1 UNK         0.0000 
     64 O64        -2.1806    0.8265    1.8393 O.3       1 UNK         0.0000 
     65 C65        -1.9893    1.7984    2.7697 C.2       1 UNK         0.0000 
     66 O66        -2.7923    2.7050    2.9968 O.2       1 UNK         0.0000 
     67 C67        -0.6167    1.6995    3.4984 C.3       1 UNK         0.0000 
     68 N68        -0.4351    2.8533    4.4054 N.am      1 UNK         0.0000 
     69 C69         0.6433    3.2706    5.0866 C.2       1 UNK         0.0000 
     70 O70         0.5904    4.2965    5.7610 O.2       1 UNK         0.0000 
     71 C71         1.9585    2.4641    5.0762 C.3       1 UNK         0.0000 
     72 H72         2.0023    1.8534    4.1786 H         1 UNK         0.0000 
     73 C73         2.0087    1.5234    6.3133 C.3       1 UNK         0.0000 
     74 C74         3.4486    1.1955    6.7936 C.3       1 UNK         0.0000 
     75 C75         3.5565    0.0335    7.8216 C.3       1 UNK         0.0000 
     76 N76         3.4077   -1.3333    7.3100 N.am      1 UNK         0.0000 
     77 O77         3.4138   -1.5161    5.9876 O.co2     1 UNK         0.0000 
     78 C78         3.4892   -2.4886    8.0158 C.2       1 UNK         0.0000 
     79 O79         3.5770   -3.4233    7.1942 O.co2     1 UNK         0.0000 
     80 C80         3.4663   -2.6516    9.5428 C.3       1 UNK         0.0000 
     81 C81         3.8691   -4.0906    9.9831 C.3       1 UNK         0.0000 
     82 N82         3.0586    3.4388    5.1355 N.am      1 UNK         0.0000 
     83 C83         4.1362    3.5900    4.3519 C.2       1 UNK         0.0000 
     84 O84         5.1025    4.2410    4.7448 O.2       1 UNK         0.0000 
     85 C85         4.1950    2.9861    2.9425 C.3       1 UNK         0.0000 
     86 N86         5.5386    2.4595    2.7593 N.am      1 UNK         0.0000 
     87 C87         5.9644    1.9668    1.5873 C.2       1 UNK         0.0000 
     88 O88         5.2391    1.8227    0.6016 O.2       1 UNK         0.0000 
     89 C89         7.4346    1.5221    1.4452 C.3       1 UNK         0.0000 
     90 H90         7.6556    1.5579    0.3747 H         1 UNK         0.0000 
     91 C91         8.4939    2.3465    2.2156 C.3       1 UNK         0.0000 
     92 N92         7.4603    0.0544    1.8247 N.4       1 UNK         0.0000 
     93 H93         6.5386   -0.3527    1.6714 H         1 UNK         0.0000 
     94 H94         7.6376   -0.0048    2.8184 H         1 UNK         0.0000 
     95 C95         8.5241   -0.7627    1.0376 C.3       1 UNK         0.0000 
     96 H96         9.0573   -5.1126    7.2690 H         1 UNK         0.0000 
     97 H97         8.3908   -3.5355    6.9703 H         1 UNK         0.0000 
     98 H98         7.3926   -4.8131    7.6829 H         1 UNK         0.0000 
     99 H99         8.5383   -4.8666    4.8223 H         1 UNK         0.0000 
    100 H100        7.6045   -6.1398    5.4993 H         1 UNK         0.0000 
    101 H101        8.0656   -4.0226    2.9854 H         1 UNK         0.0000 
    102 H102        7.6470   -2.3662    3.1696 H         1 UNK         0.0000 
    103 H103        6.2390   -4.3996    1.3438 H         1 UNK         0.0000 
    104 H104        5.7776   -2.7310    1.3805 H         1 UNK         0.0000 
    105 H105        8.5910   -3.6053    0.5901 H         1 UNK         0.0000 
    106 H106        7.2910   -3.6970   -0.5049 H         1 UNK         0.0000 
    107 H107        6.5810   -0.0145   -0.5871 H         1 UNK         0.0000 
    108 H108        6.1276    0.9882   -4.7490 H         1 UNK         0.0000 
    109 H109        7.5617    0.6039   -3.8494 H         1 UNK         0.0000 
    110 H110        7.0750   -0.5283   -5.9916 H         1 UNK         0.0000 
    111 H111        3.7534    0.3178   -2.7989 H         1 UNK         0.0000 
    112 H112        2.4330   -1.4164   -6.4422 H         1 UNK         0.0000 
    113 H113       -0.3876   -0.8575   -5.4576 H         1 UNK         0.0000 
    114 H114        0.0843   -1.2303   -7.1126 H         1 UNK         0.0000 
    115 H115        0.6263    0.2657   -6.3662 H         1 UNK         0.0000 
    116 H116        2.2852   -3.5875   -5.1708 H         1 UNK         0.0000 
    117 H117        1.1607   -3.4640   -6.5092 H         1 UNK         0.0000 
    118 H118        0.5889   -3.2586   -4.8626 H         1 UNK         0.0000 
    119 H119        0.7186   -0.0484   -3.1670 H         1 UNK         0.0000 
    120 H120       -0.8295   -1.1105   -1.7554 H         1 UNK         0.0000 
    121 H121        0.3946   -1.0966   -0.4686 H         1 UNK         0.0000 
    122 H122        0.0893   -3.7359   -1.3260 H         1 UNK         0.0000 
    123 H123       -2.7045   -3.5045    2.4566 H         1 UNK         0.0000 
    124 H124       -2.6675   -1.8073    2.8633 H         1 UNK         0.0000 
    125 H125       -0.0765   -3.3038    2.1796 H         1 UNK         0.0000 
    126 H126       -0.2505   -1.7727    3.0252 H         1 UNK         0.0000 
    127 H127       -1.2501   -4.4550    4.0870 H         1 UNK         0.0000 
    128 H128       -1.1721   -2.9757    5.0039 H         1 UNK         0.0000 
    129 H129       -0.0081   -6.6031    6.3700 H         1 UNK         0.0000 
    130 H130       -1.1609   -5.3403    6.0877 H         1 UNK         0.0000 
    131 H131       -0.2678   -4.0554    8.1183 H         1 UNK         0.0000 
    132 H132        0.9086   -5.3456    8.4014 H         1 UNK         0.0000 
    133 H133       -0.8020   -5.6450    8.5740 H         1 UNK         0.0000 
    134 H134       -3.6733   -3.0101   -0.3675 H         1 UNK         0.0000 
    135 H135       -5.8558    0.7090   -0.2395 H         1 UNK         0.0000 
    136 H136       -8.2824    0.9301    0.0440 H         1 UNK         0.0000 
    137 H137       -7.5293    2.5120    0.1524 H         1 UNK         0.0000 
    138 H138       -9.1669    1.8088    2.5829 H         1 UNK         0.0000 
    139 H139       -9.9233    3.3678    0.0558 H         1 UNK         0.0000 
    140 H140      -11.2753    3.1105    2.8120 H         1 UNK         0.0000 
    141 H141      -10.9579    4.6498    2.0182 H         1 UNK         0.0000 
    142 H142      -12.4231    3.8808    0.0600 H         1 UNK         0.0000 
    143 H143      -12.8383    2.4657    0.9834 H         1 UNK         0.0000 
    144 H144      -13.2828    5.3308    1.9767 H         1 UNK         0.0000 
    145 H145      -13.8530    3.8981    2.7694 H         1 UNK         0.0000 
    146 H146      -14.7744    4.8571    0.0063 H         1 UNK         0.0000 
    147 H147      -15.5977    5.1956    1.4959 H         1 UNK         0.0000 
    148 H148      -15.1982    2.3957    0.3215 H         1 UNK         0.0000 
    149 H149      -15.9427    2.7111    1.8659 H         1 UNK         0.0000 
    150 H150      -17.0182    3.7319   -0.8324 H         1 UNK         0.0000 
    151 H151      -17.6950    2.4086    0.1083 H         1 UNK         0.0000 
    152 H152      -17.7622    4.0514    0.7303 H         1 UNK         0.0000 
    153 H153       -3.5861    1.9484    0.8077 H         1 UNK         0.0000 
    154 H154       -2.8267    0.7266   -0.1019 H         1 UNK         0.0000 
    155 H155        0.1526    1.6966    2.7232 H         1 UNK         0.0000 
    156 H156       -0.5668    0.7570    4.0491 H         1 UNK         0.0000 
    157 H157       -1.2539    3.4388    4.4965 H         1 UNK         0.0000 
    158 H158        1.4928    0.5925    6.0635 H         1 UNK         0.0000 
    159 H159        1.4419    1.9611    7.1429 H         1 UNK         0.0000 
    160 H160        3.8878    2.0784    7.2767 H         1 UNK         0.0000 
    161 H161        4.0885    0.9781    5.9402 H         1 UNK         0.0000 
    162 H162        4.5319    0.0805    8.3087 H         1 UNK         0.0000 
    163 H163        2.8309    0.1617    8.6206 H         1 UNK         0.0000 
    164 H164        4.1209   -1.9112   10.0063 H         1 UNK         0.0000 
    165 H165        2.4494   -2.4273    9.8816 H         1 UNK         0.0000 
    166 H166        4.8878   -4.3412    9.6750 H         1 UNK         0.0000 
    167 H167        3.8420   -4.2482   11.0682 H         1 UNK         0.0000 
    168 H168        3.1988   -4.8464    9.5644 H         1 UNK         0.0000 
    169 H169        2.9893    4.0210    5.9558 H         1 UNK         0.0000 
    170 H170        3.4401    2.2347    2.7358 H         1 UNK         0.0000 
    171 H171        4.0423    3.8033    2.2365 H         1 UNK         0.0000 
    172 H172        6.1440    2.6198    3.5543 H         1 UNK         0.0000 
    173 H173        8.3482    2.3286    3.2951 H         1 UNK         0.0000 
    174 H174        8.4705    3.3926    1.9009 H         1 UNK         0.0000 
    175 H175        9.5060    1.9932    2.0089 H         1 UNK         0.0000 
    176 H176        9.2372   -0.0474    0.6197 H         1 UNK         0.0000 
    177 H177        9.0600   -1.3380    1.7934 H         1 UNK         0.0000 
@<TRIPOS>BOND
     1    1    5 nc   
     2    1    7 nc   
     3    1   41 nc   
     4    1   43 nc   
     5    1   77 nc   
     6    1   79 nc   
     7    2   96 1    
     8    2   98 1    
     9    2    3 1    
    10    2   97 1    
    11    3  100 1    
    12    3    4 1    
    13    3   99 1    
    14    4    5 2    
    15    4    6 am   BACKBONE|DICT|INTERRES
    16    6    7 1    
    17    6    8 1    
    18    8  101 1    
    19    8  102 1    
    20    8    9 1    
    21    9   10 1    
    22    9  103 1    
    23    9  104 1    
    24   10  105 1    
    25   10   11 1    
    26   10  106 1    
    27   11   12 1    
    28   11   95 1    
    29   11   13 1    
    30   13  107 1    
    31   13   14 am   BACKBONE|DICT|INTERRES
    32   14   15 2    
    33   14   16 1    
    34   16   17 1    
    35   16   18 1    
    36   16   20 1    
    37   18  109 1    
    38   18   19 1    
    39   18  108 1    
    40   19  110 1    
    41   20  111 1    
    42   20   21 am   BACKBONE|DICT|INTERRES
    43   21   22 2    
    44   21   23 1    
    45   23   24 1    
    46   23   28 1    
    47   23   25 1    
    48   25   27 1    
    49   25   26 1    
    50   25  112 1    
    51   26  113 1    
    52   26  114 1    
    53   26  115 1    
    54   27  116 1    
    55   27  118 1    
    56   27  117 1    
    57   28  119 1    
    58   28   29 am   BACKBONE|DICT|INTERRES
    59   29   31 1    
    60   29   30 2    
    61   31   32 1    
    62   31  121 1    
    63   31  120 1    
    64   32   33 am   BACKBONE|DICT|INTERRES
    65   32  122 1    
    66   33   34 2    
    67   33   35 1    
    68   35   36 1    
    69   35   37 1    
    70   35   46 1    
    71   37  123 1    
    72   37   38 1    
    73   37  124 1    
    74   38  126 1    
    75   38   39 1    
    76   38  125 1    
    77   39   40 1    
    78   39  128 1    
    79   39  127 1    
    80   40   42 am   BACKBONE|DICT|INTERRES
    81   40   41 1    
    82   42   43 2    
    83   42   44 1    
    84   44   45 1    
    85   44  129 1    
    86   44  130 1    
    87   45  131 1    
    88   45  132 1    
    89   45  133 1    
    90   46   47 am   BACKBONE|DICT|INTERRES
    91   46  134 1    
    92   47   49 1    
    93   47   48 2    
    94   49   50 1    
    95   49   51 1    
    96   49   63 1    
    97   51   52 am   BACKBONE|DICT|INTERRES
    98   51  135 1    
    99   52   53 2    
   100   52   54 1    
   101   54   55 1    
   102   54  136 1    
   103   54  137 1    
   104   55  138 1    
   105   55   56 2    
   106   56   57 1    
   107   56  139 1    
   108   57  141 1    
   109   57  140 1    
   110   57   58 1    
   111   58   59 1    
   112   58  142 1    
   113   58  143 1    
   114   59  144 1    
   115   59  145 1    
   116   59   60 1    
   117   60  147 1    
   118   60   61 1    
   119   60  146 1    
   120   61  149 1    
   121   61   62 1    
   122   61  148 1    
   123   62  152 1    
   124   62  150 1    
   125   62  151 1    
   126   63  153 1    
   127   63   64 1    
   128   63  154 1    
   129   64   65 1    
   130   65   66 2    
   131   65   67 1    
   132   67  156 1    
   133   67   68 1    
   134   67  155 1    
   135   68  157 1    
   136   68   69 am   BACKBONE|DICT|INTERRES
   137   69   71 1    
   138   69   70 2    
   139   71   72 1    
   140   71   82 1    
   141   71   73 1    
   142   73   74 1    
   143   73  159 1    
   144   73  158 1    
   145   74  160 1    
   146   74   75 1    
   147   74  161 1    
   148   75  162 1    
   149   75  163 1    
   150   75   76 1    
   151   76   78 am   BACKBONE|DICT|INTERRES
   152   76   77 1    
   153   78   79 2    
   154   78   80 1    
   155   80   81 1    
   156   80  165 1    
   157   80  164 1    
   158   81  167 1    
   159   81  166 1    
   160   81  168 1    
   161   82  169 1    
   162   82   83 am   BACKBONE|DICT|INTERRES
   163   83   84 2    
   164   83   85 1    
   165   85   86 1    
   166   85  170 1    
   167   85  171 1    
   168   86  172 1    
   169   86   87 am   BACKBONE|DICT|INTERRES
   170   87   88 2    
   171   87   89 1    
   172   89   90 1    
   173   89   92 1    
   174   89   91 1    
   175   91  173 1    
   176   91  174 1    
   177   91  175 1    
   178   92   94 1    
   179   92   93 1    
   180   92   95 1    
   181   95  177 1    
   182   95  176 1    
@<TRIPOS>SUBSTRUCTURE
     1 UNK         1 GROUP             0       ****    0 ROOT    
@<TRIPOS>MOLECULE
161_c1
110   114    1
SMALL
USER_CHARGES


@<TRIPOS>ATOM
      1 Fe1         0.6732    3.6678    0.6899 Fe        1 UNK         0.0000 
      2 O2          8.5508   -0.1114    2.3322 O.3       1 UNK         0.0000 
      3 C3          7.6280    0.8915    2.0099 C.3       1 UNK         0.0000 
      4 C4          6.2075    0.3327    2.1530 C.3       1 UNK         0.0000 
      5 C5          5.0801    1.3146    1.8490 C.3       1 UNK         0.0000 
      6 C6          5.4145    2.7290    1.4109 C.3       1 UNK         0.0000 
      7 C7          3.8154    0.8408    2.0134 C.2       1 UNK         0.0000 
      8 C8          2.5307    1.5774    1.8288 C.1       1 UNK         0.0000 
      9 O9          2.4065    2.7126    1.4151 O.co2     1 UNK         0.0000 
     10 N10         1.3439    1.1213    2.0770 N.pl3     1 UNK         0.0000 
     11 O11         0.5504    2.1581    1.8604 O.co2     1 UNK         0.0000 
     12 C12         0.8590   -0.1758    2.5125 C.3       1 UNK         0.0000 
     13 C13         0.0178   -0.7986    1.3852 C.3       1 UNK         0.0000 
     14 C14        -0.7908   -2.0129    1.8721 C.3       1 UNK         0.0000 
     15 C15        -1.3982   -2.8769    0.7333 C.3       1 UNK         0.0000 
     16 H16        -0.5345   -3.2605    0.1434 H         1 UNK         0.0000 
     17 N17        -2.1072   -4.0255    1.3135 N.4       1 UNK         0.0000 
     18 H18        -2.4341   -4.6711    0.5581 H         1 UNK         0.0000 
     19 H19        -2.9330   -3.6994    1.8674 H         1 UNK         0.0000 
     20 H20        -1.4668   -4.5668    1.9391 H         1 UNK         0.0000 
     21 C21        -2.3041   -2.1654   -0.2631 C.2       1 UNK         0.0000 
     22 O22        -2.6986   -2.7998   -1.2329 O.2       1 UNK         0.0000 
     23 O23        -2.6243   -0.8493   -0.1462 O.3       1 UNK         0.0000 
     24 C24        -3.0478   -0.0914   -1.2268 C.3       1 UNK         0.0000 
     25 C25        -3.2412    1.3744   -0.8224 C.3       1 UNK         0.0000 
     26 C26        -3.3470    2.2602   -2.0698 C.2       1 UNK         0.0000 
     27 C27        -4.5501    2.0814   -2.9604 C.3       1 UNK         0.0000 
     28 C28        -2.3944    3.1542   -2.4674 C.2       1 UNK         0.0000 
     29 C29        -1.1311    3.4427   -1.7358 C.2       1 UNK         0.0000 
     30 O30        -0.9640    3.2496   -0.5737 O.co2     1 UNK         0.0000 
     31 N31        -0.0378    3.9549   -2.1900 N.am      1 UNK         0.0000 
     32 O32         0.8517    3.8497   -1.1869 O.co2     1 UNK         0.0000 
     33 C33         0.1666    4.4999   -3.5184 C.3       1 UNK         0.0000 
     34 C34         1.5169    5.2044   -3.6772 C.3       1 UNK         0.0000 
     35 C35         1.5863    5.8454   -5.0755 C.3       1 UNK         0.0000 
     36 C36         2.8954    6.6007   -5.3946 C.3       1 UNK         0.0000 
     37 H37         3.7515    5.9052   -5.2443 H         1 UNK         0.0000 
     38 N38         2.8861    7.0006   -6.8116 N.4       1 UNK         0.0000 
     39 H39         2.7932    6.1557   -7.4215 H         1 UNK         0.0000 
     40 H40         3.7875    7.4713   -7.0581 H         1 UNK         0.0000 
     41 H41         2.0904    7.6508   -7.0099 H         1 UNK         0.0000 
     42 C42         3.1155    7.8128   -4.5012 C.2       1 UNK         0.0000 
     43 O43         3.1941    8.9313   -4.9939 O.2       1 UNK         0.0000 
     44 O44         3.3075    7.6384   -3.1681 O.3       1 UNK         0.0000 
     45 C45         3.8022    8.5939   -2.2973 C.3       1 UNK         0.0000 
     46 C46         2.8509    8.8611   -1.1214 C.3       1 UNK         0.0000 
     47 C47         2.4372    7.6074   -0.3697 C.2       1 UNK         0.0000 
     48 C48         3.4910    6.6350    0.1134 C.3       1 UNK         0.0000 
     49 C49         1.1266    7.4115   -0.0851 C.2       1 UNK         0.0000 
     50 C50         0.6143    6.2315    0.6471 C.2       1 UNK         0.0000 
     51 O51         1.1586    5.1502    0.8652 O.co2     1 UNK         0.0000 
     52 N52        -0.4551    6.0381    1.2385 N.am      1 UNK         0.0000 
     53 O53         0.0361    4.8866    1.7595 O.co2     1 UNK         0.0000 
     54 C54        -1.4490    6.9629    1.7276 C.3       1 UNK         0.0000 
     55 C55        -0.9048    7.7094    2.9386 C.3       1 UNK         0.0000 
     56 C56        -1.9555    8.6673    3.5044 C.3       1 UNK         0.0000 
     57 C57        -1.4250    9.4410    4.7259 C.3       1 UNK         0.0000 
     58 H58        -0.5181   10.0094    4.4104 H         1 UNK         0.0000 
     59 C59        -1.0485    8.4971    5.8465 C.2       1 UNK         0.0000 
     60 O60        -1.9783    7.6924    6.3979 O.3       1 UNK         0.0000 
     61 O61         0.1021    8.4516    6.2497 O.2       1 UNK         0.0000 
     62 N62        -2.4305   10.3972    5.1947 N.4       1 UNK         0.0000 
     63 H63        -2.0557   10.9357    6.0085 H         1 UNK         0.0000 
     64 H64        -2.6591   11.0745    4.4303 H         1 UNK         0.0000 
     65 H65        -3.3066    9.9013    5.4829 H         1 UNK         0.0000 
     66 H66         9.4464    0.3142    2.2910 H         1 UNK         0.0000 
     67 H67         7.7563    1.7466    2.7104 H         1 UNK         0.0000 
     68 H68         7.7953    1.2198    0.9605 H         1 UNK         0.0000 
     69 H69         6.0902   -0.0181    3.2029 H         1 UNK         0.0000 
     70 H70         6.1069   -0.5438    1.4767 H         1 UNK         0.0000 
     71 H71         6.0058    2.6963    0.4731 H         1 UNK         0.0000 
     72 H72         6.0126    3.2305    2.2010 H         1 UNK         0.0000 
     73 H73         4.5554    3.3859    1.2142 H         1 UNK         0.0000 
     74 H74         3.7222   -0.1870    2.3456 H         1 UNK         0.0000 
     75 H75         0.2420   -0.0209    3.4235 H         1 UNK         0.0000 
     76 H76         1.6810   -0.8735    2.7706 H         1 UNK         0.0000 
     77 H77        -0.6883   -0.0406    0.9939 H         1 UNK         0.0000 
     78 H78         0.7141   -1.0883    0.5680 H         1 UNK         0.0000 
     79 H79        -0.1019   -2.6781    2.4391 H         1 UNK         0.0000 
     80 H80        -1.5833   -1.6638    2.5697 H         1 UNK         0.0000 
     81 H81        -2.2382   -0.1305   -1.9912 H         1 UNK         0.0000 
     82 H82        -3.9785   -0.5060   -1.6712 H         1 UNK         0.0000 
     83 H83        -4.1294    1.4964   -0.1668 H         1 UNK         0.0000 
     84 H84        -2.3734    1.6085   -0.1993 H         1 UNK         0.0000 
     85 H85        -4.2277    1.7484   -3.9699 H         1 UNK         0.0000 
     86 H86        -5.2521    1.3266   -2.5487 H         1 UNK         0.0000 
     87 H87        -5.0959    3.0443   -3.0506 H         1 UNK         0.0000 
     88 H88        -2.5329    3.6589   -3.4197 H         1 UNK         0.0000 
     89 H89         0.0480    3.6923   -4.2738 H         1 UNK         0.0000 
     90 H90        -0.6224    5.2651   -3.6927 H         1 UNK         0.0000 
     91 H91         1.5833    5.9850   -2.8941 H         1 UNK         0.0000 
     92 H92         2.3481    4.4785   -3.5465 H         1 UNK         0.0000 
     93 H93         0.7322    6.5459   -5.2099 H         1 UNK         0.0000 
     94 H94         1.4763    5.0225   -5.8166 H         1 UNK         0.0000 
     95 H95         4.7724    8.2225   -1.9129 H         1 UNK         0.0000 
     96 H96         4.0206    9.5586   -2.8052 H         1 UNK         0.0000 
     97 H97         1.9550    9.4038   -1.4968 H         1 UNK         0.0000 
     98 H98         3.3811    9.5365   -0.4169 H         1 UNK         0.0000 
     99 H99         4.5169    6.9730   -0.1244 H         1 UNK         0.0000 
    100 H100        3.4309    6.5378    1.2182 H         1 UNK         0.0000 
    101 H101        3.3383    5.6414   -0.3582 H         1 UNK         0.0000 
    102 H102        0.3971    8.1632   -0.3723 H         1 UNK         0.0000 
    103 H103       -2.3579    6.3895    2.0115 H         1 UNK         0.0000 
    104 H104       -1.7259    7.6764    0.9205 H         1 UNK         0.0000 
    105 H105        0.0002    8.2824    2.6393 H         1 UNK         0.0000 
    106 H106       -0.6175    6.9627    3.7098 H         1 UNK         0.0000 
    107 H107       -2.8671    8.0951    3.7886 H         1 UNK         0.0000 
    108 H108       -2.2350    9.3946    2.7098 H         1 UNK         0.0000 
    109 H109        5.0715    0.9896    0.8086 H         1 UNK         0.0000 
    110 H110       -1.5743    7.1626    7.0891 H         1 UNK         0.0000 
@<TRIPOS>BOND
     1    1    9 nc   
     2    1   11 nc   
     3    1   30 nc   
     4    1   32 nc   
     5    1   51 nc   
     6    1   53 nc   
     7    2    3 1    
     8    2   66 1    
     9    3    4 1    
    10    3   67 1    
    11    3   68 1    
    12    4   69 1    
    13    4    5 1    
    14    4   70 1    
    15    5    7 1    
    16    5    6 1    
    17    5  109 1    
    18    6   72 1    
    19    6   71 1    
    20    6   73 1    
    21    7   74 1    
    22    7    8 2    
    23    8   10 1    
    24    8    9 2    
    25   10   12 1    
    26   10   11 1    
    27   12   76 1    
    28   12   75 1    
    29   12   13 1    
    30   13   14 1    
    31   13   77 1    
    32   13   78 1    
    33   14   79 1    
    34   14   80 1    
    35   14   15 1    
    36   15   16 1    
    37   15   17 1    
    38   15   21 1    
    39   17   19 1    
    40   17   20 1    
    41   17   18 1    
    42   21   23 1    
    43   21   22 2    
    44   23   24 1    
    45   24   25 1    
    46   24   81 1    
    47   24   82 1    
    48   25   84 1    
    49   25   83 1    
    50   25   26 1    
    51   26   27 1    
    52   26   28 2    
    53   27   86 1    
    54   27   85 1    
    55   27   87 1    
    56   28   29 1    
    57   28   88 1    
    58   29   31 am   BACKBONE|DICT|INTERRES
    59   29   30 2    
    60   31   32 1    
    61   31   33 1    
    62   33   34 1    
    63   33   89 1    
    64   33   90 1    
    65   34   92 1    
    66   34   91 1    
    67   34   35 1    
    68   35   36 1    
    69   35   93 1    
    70   35   94 1    
    71   36   37 1    
    72   36   42 1    
    73   36   38 1    
    74   38   39 1    
    75   38   40 1    
    76   38   41 1    
    77   42   44 1    
    78   42   43 2    
    79   44   45 1    
    80   45   95 1    
    81   45   46 1    
    82   45   96 1    
    83   46   98 1    
    84   46   47 1    
    85   46   97 1    
    86   47   49 2    
    87   47   48 1    
    88   48  100 1    
    89   48   99 1    
    90   48  101 1    
    91   49   50 1    
    92   49  102 1    
    93   50   51 2    
    94   50   52 am   BACKBONE|DICT|INTERRES
    95   52   54 1    
    96   52   53 1    
    97   54  103 1    
    98   54   55 1    
    99   54  104 1    
   100   55   56 1    
   101   55  106 1    
   102   55  105 1    
   103   56  107 1    
   104   56   57 1    
   105   56  108 1    
   106   57   58 1    
   107   57   62 1    
   108   57   59 1    
   109   59   61 2    
   110   59   60 1    
   111   60  110 1    
   112   62   65 1    
   113   62   63 1    
   114   62   64 1    
@<TRIPOS>SUBSTRUCTURE
     1 UNK         1 GROUP             0       ****    0 ROOT    
@<TRIPOS>MOLECULE
167_c1
72   79    1
SMALL
USER_CHARGES


@<TRIPOS>ATOM
      1 Fe1        -0.6411    2.4631    1.2742 Fe        1 UNK         0.0000 
      2 C2         -0.2010   -1.3042    3.0691 C.ar      1 UNK         0.0000 
      3 C3          0.6942   -0.6109    3.8711 C.ar      1 UNK         0.0000 
      4 C4          0.5437    0.7557    4.0745 C.ar      1 UNK         0.0000 
      5 C5         -0.4907    1.4588    3.4605 C.ar      1 UNK         0.0000 
      6 O6         -0.3718    2.7453    3.4451 O.co2     1 UNK         0.0000 
      7 C7         -1.4651    0.7377    2.7083 C.ar      1 UNK         0.0000 
      8 O8         -2.3801    1.4235    2.1464 O.co2     1 UNK         0.0000 
      9 C9         -1.3010   -0.6691    2.4591 C.ar      1 UNK         0.0000 
     10 C10        -2.1697   -1.5333    1.5181 C.2       1 UNK         0.0000 
     11 O11        -3.4069   -1.5941    1.6085 O.2       1 UNK         0.0000 
     12 N12        -1.4862   -2.4099    0.7115 N.am      1 UNK         0.0000 
     13 C13        -2.0451   -3.6021    0.0247 C.3       1 UNK         0.0000 
     14 C14        -2.2899   -3.5595   -1.5312 C.3       1 UNK         0.0000 
     15 C15        -1.0656   -3.5807   -2.5588 C.3       1 UNK         0.0000 
     16 C16        -1.1242   -2.5358   -3.7842 C.3       1 UNK         0.0000 
     17 H17        -1.7920   -2.9633   -4.5303 H         1 UNK         0.0000 
     18 N18        -1.8316   -1.4008   -3.3460 N.am      1 UNK         0.0000 
     19 C19        -1.4683   -0.4931   -2.4746 C.2       1 UNK         0.0000 
     20 O20        -2.2477    0.4627   -2.6045 O.2       1 UNK         0.0000 
     21 C21        -0.1694   -0.5118   -1.5768 C.ar      1 UNK         0.0000 
     22 C22        -0.0380    0.4096   -0.5283 C.ar      1 UNK         0.0000 
     23 O23        -1.0630    1.1036   -0.3369 O.co2     1 UNK         0.0000 
     24 C24         1.1598    0.5832    0.2201 C.ar      1 UNK         0.0000 
     25 O25         1.2821    1.4198    1.1624 O.co2     1 UNK         0.0000 
     26 C26         2.3018   -0.1618   -0.0866 C.ar      1 UNK         0.0000 
     27 S27         3.9146    0.1239    0.7405 S.3       1 UNK         0.0000 
     28 O28         4.4965    1.4195    0.3771 O.2       1 UNK         0.0000 
     29 O29         4.8442   -0.9767   -0.0677 O.3       1 UNK         0.0000 
     30 O30         3.9211   -0.3506    2.1317 O.2       1 UNK         0.0000 
     31 C31         2.1884   -1.1332   -1.0684 C.ar      1 UNK         0.0000 
     32 C32         0.9954   -1.3079   -1.7654 C.ar      1 UNK         0.0000 
     33 C33         0.1624   -2.0817   -4.6127 C.2       1 UNK         0.0000 
     34 O34         0.8885   -2.9973   -4.9925 O.2       1 UNK         0.0000 
     35 N35         0.5662   -0.7881   -4.8913 N.am      1 UNK         0.0000 
     36 C36        -0.0555    0.5810   -4.8510 C.3       1 UNK         0.0000 
     37 C37         0.6155    1.7340   -3.9960 C.2       1 UNK         0.0000 
     38 O38         1.7190    2.1450   -4.3647 O.2       1 UNK         0.0000 
     39 N39        -0.0693    2.3586   -2.9893 N.am      1 UNK         0.0000 
     40 C40         0.1900    3.7152   -2.3849 C.3       1 UNK         0.0000 
     41 H41         1.2719    3.8490   -2.3592 H         1 UNK         0.0000 
     42 C42        -0.2049    3.8554   -0.8536 C.2       1 UNK         0.0000 
     43 O43         0.4026    3.4639    0.1522 O.co2     1 UNK         0.0000 
     44 C44        -0.4610    4.9010   -3.1286 C.3       1 UNK         0.0000 
     45 C45        -1.9742    4.9820   -2.8493 C.3       1 UNK         0.0000 
     46 C46        -2.3263    5.1148   -1.3411 C.3       1 UNK         0.0000 
     47 N47        -1.4680    4.2411   -0.5200 N.am      1 UNK         0.0000 
     48 O48        -1.7566    3.9605    0.7687 O.co2     1 UNK         0.0000 
     49 H49         0.0253   -2.3417    2.8801 H         1 UNK         0.0000 
     50 H50         1.5729   -1.1193    4.2340 H         1 UNK         0.0000 
     51 H51         1.3227    1.2980    4.5917 H         1 UNK         0.0000 
     52 H52        -0.5008   -2.2076    0.5818 H         1 UNK         0.0000 
     53 H53        -1.3591   -4.4239    0.2236 H         1 UNK         0.0000 
     54 H54        -2.9721   -3.8989    0.5210 H         1 UNK         0.0000 
     55 H55        -2.9457   -2.7049   -1.6853 H         1 UNK         0.0000 
     56 H56        -2.9332   -4.4003   -1.7942 H         1 UNK         0.0000 
     57 H57        -0.9813   -4.5887   -2.9703 H         1 UNK         0.0000 
     58 H58        -0.1765   -3.5016   -1.9463 H         1 UNK         0.0000 
     59 H59        -2.6961   -1.1582   -3.7877 H         1 UNK         0.0000 
     60 H60         3.0342   -1.7547   -1.3241 H         1 UNK         0.0000 
     61 H61         1.1421   -2.0805   -2.4740 H         1 UNK         0.0000 
     62 H62         1.5085   -0.7155   -5.2392 H         1 UNK         0.0000 
     63 H63        -1.1369    0.5800   -4.8031 H         1 UNK         0.0000 
     64 H64         0.0992    0.9293   -5.8664 H         1 UNK         0.0000 
     65 H65        -0.9210    1.9086   -2.6338 H         1 UNK         0.0000 
     66 H66         0.0257    5.8310   -2.8361 H         1 UNK         0.0000 
     67 H67        -0.3002    4.7825   -4.1983 H         1 UNK         0.0000 
     68 H68        -2.4492    4.0704   -3.2264 H         1 UNK         0.0000 
     69 H69        -2.4221    5.8146   -3.3900 H         1 UNK         0.0000 
     70 H70        -2.1622    6.1308   -0.9819 H         1 UNK         0.0000 
     71 H71        -3.3820    4.8727   -1.1759 H         1 UNK         0.0000 
     72 H72         5.6742   -0.9920    0.4246 H         1 UNK         0.0000 
@<TRIPOS>BOND
     1    1    6 nc   
     2    1    8 nc   
     3    1   23 nc   
     4    1   25 nc   
     5    1   43 nc   
     6    1   48 nc   
     7    2    3 ar   
     8    2    9 ar   
     9    2   49 1    
    10    3    4 ar   
    11    3   50 1    
    12    4   51 1    
    13    4    5 ar   
    14    5    6 1    
    15    5    7 ar   
    16    7    8 1    
    17    7    9 ar   
    18    9   10 1    
    19   10   11 2    
    20   10   12 am   BACKBONE|DICT|INTERRES
    21   12   52 1    
    22   12   13 1    
    23   13   53 1    
    24   13   54 1    
    25   13   14 1    
    26   14   55 1    
    27   14   15 1    
    28   14   56 1    
    29   15   58 1    
    30   15   16 1    
    31   15   57 1    
    32   16   17 1    
    33   16   18 1    
    34   16   33 1    
    35   18   19 am   BACKBONE|DICT|INTERRES
    36   18   59 1    
    37   19   20 2    
    38   19   21 1    
    39   21   22 ar   
    40   21   32 ar   
    41   22   23 1    
    42   22   24 ar   
    43   24   25 1    
    44   24   26 ar   
    45   26   27 1    
    46   26   31 ar   
    47   27   30 2    
    48   27   28 2    
    49   27   29 1    
    50   29   72 1    
    51   31   32 ar   
    52   31   60 1    
    53   32   61 1    
    54   33   34 2    
    55   33   35 am   BACKBONE|DICT|INTERRES
    56   35   36 1    
    57   35   62 1    
    58   36   63 1    
    59   36   37 1    
    60   36   64 1    
    61   37   38 2    
    62   37   39 am   BACKBONE|DICT|INTERRES
    63   39   40 1    
    64   39   65 1    
    65   40   41 1    
    66   40   42 1    
    67   40   44 1    
    68   42   47 am   BACKBONE|DICT|INTERRES
    69   42   43 2    
    70   44   45 1    
    71   44   66 1    
    72   44   67 1    
    73   45   46 1    
    74   45   68 1    
    75   45   69 1    
    76   46   71 1    
    77   46   70 1    
    78   46   47 1    
    79   47   48 1    
@<TRIPOS>SUBSTRUCTURE
     1 UNK         1 GROUP             0       ****    0 ROOT    
@<TRIPOS>MOLECULE
168_c1
57   63    1
SMALL
USER_CHARGES


@<TRIPOS>ATOM
      1 Fe1         0.0850   -0.5454    1.3467 Fe        1 UNK         0.0000 
      2 O2          1.3774   -2.1276    0.8638 O.co2     1 UNK         0.0000 
      3 N3          0.6568   -3.2484    0.9145 N.am      1 UNK         0.0000 
      4 C4          1.2765   -4.5545    0.6557 C.3       1 UNK         0.0000 
      5 C5          0.4055   -5.2961   -0.3818 C.3       1 UNK         0.0000 
      6 C6         -1.1003   -5.2121   -0.0250 C.3       1 UNK         0.0000 
      7 C7         -1.5289   -3.7342    0.1532 C.3       1 UNK         0.0000 
      8 H8         -2.5752   -3.6522    0.4579 H         1 UNK         0.0000 
      9 C9         -0.6442   -3.1422    1.3246 C.2       1 UNK         0.0000 
     10 O10        -1.0443   -2.2377    2.0844 O.co2     1 UNK         0.0000 
     11 N11        -1.3563   -2.9607   -1.1367 N.am      1 UNK         0.0000 
     12 C12        -1.1300   -1.6408   -1.2448 C.2       1 UNK         0.0000 
     13 O13        -1.3290   -0.8979   -0.2718 O.co2     1 UNK         0.0000 
     14 C14        -0.4307   -1.0889   -2.5157 C.3       1 UNK         0.0000 
     15 N15        -0.2594    0.3871   -2.5083 N.am      1 UNK         0.0000 
     16 C16         0.3139    1.1073   -1.5189 C.2       1 UNK         0.0000 
     17 O17         1.0061    0.6021   -0.6191 O.co2     1 UNK         0.0000 
     18 C18        -0.0598    2.6139   -1.4230 C.3       1 UNK         0.0000 
     19 H19         0.3585    3.0286   -0.5019 H         1 UNK         0.0000 
     20 N20         0.6957    3.3170   -2.5219 N.4       1 UNK         0.0000 
     21 H21         0.3927    3.0028   -3.4314 H         1 UNK         0.0000 
     22 H22         0.5365    4.3131   -2.4462 H         1 UNK         0.0000 
     23 H23         1.6881    3.1486   -2.4133 H         1 UNK         0.0000 
     24 C24        -1.6054    2.8058   -1.4624 C.3       1 UNK         0.0000 
     25 C25        -2.1955    4.1971   -1.1141 C.3       1 UNK         0.0000 
     26 C26        -1.9020    4.7894    0.2879 C.3       1 UNK         0.0000 
     27 N27        -1.6836    3.7770    1.3011 N.am      1 UNK         0.0000 
     28 C28        -2.2043    3.5956    2.5157 C.2       1 UNK         0.0000 
     29 O29        -3.1514    4.2348    2.9666 O.2       1 UNK         0.0000 
     30 C30        -1.3354    2.6340    3.3113 C.ar      1 UNK         0.0000 
     31 C31        -0.6307    1.5580    2.6932 C.ar      1 UNK         0.0000 
     32 O32        -0.9248    1.1368    1.5186 O.co2     1 UNK         0.0000 
     33 C33         0.4290    0.9343    3.3798 C.ar      1 UNK         0.0000 
     34 O34         1.1707    0.0577    2.8431 O.co2     1 UNK         0.0000 
     35 C35         0.7162    1.2945    4.6917 C.ar      1 UNK         0.0000 
     36 C36        -0.0389    2.2666    5.3403 C.ar      1 UNK         0.0000 
     37 C37        -1.0582    2.9349    4.6610 C.ar      1 UNK         0.0000 
     38 H38         2.2874   -4.4021    0.2785 H         1 UNK         0.0000 
     39 H39         1.3553   -5.0965    1.6019 H         1 UNK         0.0000 
     40 H40         0.7418   -6.3251   -0.4716 H         1 UNK         0.0000 
     41 H41         0.5805   -4.8403   -1.3570 H         1 UNK         0.0000 
     42 H42        -1.2850   -5.7641    0.8990 H         1 UNK         0.0000 
     43 H43        -1.7017   -5.6976   -0.7964 H         1 UNK         0.0000 
     44 H44        -1.4923   -3.5006   -1.9808 H         1 UNK         0.0000 
     45 H45         0.5519   -1.5580   -2.5804 H         1 UNK         0.0000 
     46 H46        -0.9864   -1.3781   -3.4083 H         1 UNK         0.0000 
     47 H47        -0.8408    0.8522   -3.1863 H         1 UNK         0.0000 
     48 H48        -1.9869    2.5151   -2.4417 H         1 UNK         0.0000 
     49 H49        -2.0600    2.0913   -0.7721 H         1 UNK         0.0000 
     50 H50        -3.2800    4.0921   -1.1848 H         1 UNK         0.0000 
     51 H51        -1.9415    4.9298   -1.8789 H         1 UNK         0.0000 
     52 H52        -1.0075    5.4168    0.2620 H         1 UNK         0.0000 
     53 H53        -2.7292    5.4374    0.5982 H         1 UNK         0.0000 
     54 H54        -1.0699    2.9809    1.1579 H         1 UNK         0.0000 
     55 H55         1.5509    0.8288    5.2005 H         1 UNK         0.0000 
     56 H56         0.2214    2.5453    6.3502 H         1 UNK         0.0000 
     57 H57        -1.5716    3.7540    5.1445 H         1 UNK         0.0000 
@<TRIPOS>BOND
     1    1    2 nc   
     2    1   10 nc   
     3    1   13 nc   
     4    1   17 nc   
     5    1   32 nc   
     6    1   34 nc   
     7    2    3 1    
     8    3    9 am   BACKBONE|DICT|INTERRES
     9    3    4 1    
    10    4   39 1    
    11    4    5 1    
    12    4   38 1    
    13    5    6 1    
    14    5   40 1    
    15    5   41 1    
    16    6    7 1    
    17    6   42 1    
    18    6   43 1    
    19    7    8 1    
    20    7    9 1    
    21    7   11 1    
    22    9   10 2    
    23   11   12 am   BACKBONE|DICT|INTERRES
    24   11   44 1    
    25   12   13 2    
    26   12   14 1    
    27   14   15 1    
    28   14   45 1    
    29   14   46 1    
    30   15   16 am   BACKBONE|DICT|INTERRES
    31   15   47 1    
    32   16   18 1    
    33   16   17 2    
    34   18   19 1    
    35   18   20 1    
    36   18   24 1    
    37   20   23 1    
    38   20   22 1    
    39   20   21 1    
    40   24   25 1    
    41   24   49 1    
    42   24   48 1    
    43   25   26 1    
    44   25   50 1    
    45   25   51 1    
    46   26   53 1    
    47   26   27 1    
    48   26   52 1    
    49   27   28 am   BACKBONE|DICT|INTERRES
    50   27   54 1    
    51   28   29 2    
    52   28   30 1    
    53   30   37 ar   
    54   30   31 ar   
    55   31   33 ar   
    56   31   32 1    
    57   33   35 ar   
    58   33   34 1    
    59   35   55 1    
    60   35   36 ar   
    61   36   56 1    
    62   36   37 ar   
    63   37   57 1    
@<TRIPOS>SUBSTRUCTURE
     1 UNK         1 GROUP             0       ****    0 ROOT    
@<TRIPOS>MOLECULE
170_c1
98   103    1
SMALL
USER_CHARGES


@<TRIPOS>ATOM
      1 Fe1         0.0107   -0.6049    0.7523 Fe        1 UNK         0.0000 
      2 O2         -4.1053    4.7033    6.4404 O.3       1 UNK         0.0000 
      3 C3         -3.3350    3.6643    5.8500 C.3       1 UNK         0.0000 
      4 C4         -3.3806    3.6972    4.3016 C.3       1 UNK         0.0000 
      5 H5         -2.9864    4.6625    3.9666 H         1 UNK         0.0000 
      6 O6         -4.7201    3.6268    3.8362 O.3       1 UNK         0.0000 
      7 C7         -2.5757    2.5737    3.6441 C.2       1 UNK         0.0000 
      8 C8         -3.1230    1.1624    3.8992 C.3       1 UNK         0.0000 
      9 C9         -1.4606    2.8544    2.9083 C.2       1 UNK         0.0000 
     10 C10        -0.6465    1.8570    2.2433 C.2       1 UNK         0.0000 
     11 O11        -0.9680    0.6729    2.1873 O.co2     1 UNK         0.0000 
     12 N12         0.5242    2.1142    1.6184 N.am      1 UNK         0.0000 
     13 O13         1.2726    1.0785    1.2192 O.co2     1 UNK         0.0000 
     14 C14         1.0002    3.4337    1.1534 C.3       1 UNK         0.0000 
     15 C15         1.0545    3.5614   -0.3954 C.3       1 UNK         0.0000 
     16 C16         1.5938    4.9230   -0.8932 C.3       1 UNK         0.0000 
     17 C17         1.5737    5.1263   -2.4375 C.3       1 UNK         0.0000 
     18 H18         1.9883    6.1218   -2.6178 H         1 UNK         0.0000 
     19 N19         0.2063    5.1485   -3.0104 N.am      1 UNK         0.0000 
     20 C20        -0.2203    4.4832   -4.0895 C.2       1 UNK         0.0000 
     21 O21        -1.3708    4.6610   -4.4807 O.2       1 UNK         0.0000 
     22 C22         2.6333    4.2136   -3.1388 C.2       1 UNK         0.0000 
     23 O23         3.8173    4.1379   -2.8236 O.2       1 UNK         0.0000 
     24 N24         2.1837    3.4994   -4.1778 N.am      1 UNK         0.0000 
     25 C25         0.8145    3.5114   -4.7476 C.3       1 UNK         0.0000 
     26 H26         0.9001    3.9038   -5.7617 H         1 UNK         0.0000 
     27 C27         0.2031    2.0906   -4.8648 C.3       1 UNK         0.0000 
     28 C28        -0.0430    1.4440   -3.4888 C.3       1 UNK         0.0000 
     29 C29        -0.5027   -0.0328   -3.5179 C.3       1 UNK         0.0000 
     30 N30        -0.6694   -0.5668   -2.1590 N.am      1 UNK         0.0000 
     31 O31         0.3717   -0.3932   -1.3625 O.co2     1 UNK         0.0000 
     32 C32        -1.8178   -0.9968   -1.6001 C.2       1 UNK         0.0000 
     33 O33        -1.7925   -1.0224   -0.3683 O.co2     1 UNK         0.0000 
     34 C34        -2.9340   -1.4538   -2.3852 C.2       1 UNK         0.0000 
     35 C35        -2.9236   -2.5446   -3.1908 C.2       1 UNK         0.0000 
     36 C36        -4.1909   -2.9349   -3.9460 C.3       1 UNK         0.0000 
     37 C37        -1.7213   -3.4817   -3.3994 C.3       1 UNK         0.0000 
     38 C38        -1.9951   -4.9314   -2.9638 C.3       1 UNK         0.0000 
     39 O39        -0.7987   -5.6045   -2.5859 O.3       1 UNK         0.0000 
     40 C40        -0.8679   -6.8927   -2.1992 C.2       1 UNK         0.0000 
     41 O41        -1.8433   -7.6135   -2.4405 O.2       1 UNK         0.0000 
     42 C42         0.3511   -7.3618   -1.3748 C.3       1 UNK         0.0000 
     43 H43         0.9716   -7.9483   -2.0544 H         1 UNK         0.0000 
     44 N44        -0.2129   -8.2125   -0.3075 N.am      1 UNK         0.0000 
     45 C45         0.0768   -9.4960   -0.0684 C.2       1 UNK         0.0000 
     46 O46         0.9175  -10.1227   -0.7116 O.2       1 UNK         0.0000 
     47 C47        -0.6934  -10.1653    1.0620 C.3       1 UNK         0.0000 
     48 C48         1.2687   -6.2575   -0.7614 C.3       1 UNK         0.0000 
     49 C49         0.5380   -5.2020    0.1039 C.3       1 UNK         0.0000 
     50 C50         1.4340   -4.4061    1.0836 C.3       1 UNK         0.0000 
     51 N51         0.8531   -3.1014    1.4386 N.am      1 UNK         0.0000 
     52 O52         1.4102   -2.0197    0.8814 O.co2     1 UNK         0.0000 
     53 C53        -0.3629   -2.8979    1.9868 C.2       1 UNK         0.0000 
     54 O54        -0.6991   -1.7196    1.7958 O.co2     1 UNK         0.0000 
     55 C55        -1.2756   -3.9468    2.6060 C.3       1 UNK         0.0000 
     56 H56        -4.9663    4.3586    6.7061 H         1 UNK         0.0000 
     57 H57        -3.6820    2.7021    6.2248 H         1 UNK         0.0000 
     58 H58        -2.2992    3.7642    6.1795 H         1 UNK         0.0000 
     59 H59        -5.1919    4.3629    4.2332 H         1 UNK         0.0000 
     60 H60        -2.3683    0.5426    4.3847 H         1 UNK         0.0000 
     61 H61        -4.0122    1.1405    4.5340 H         1 UNK         0.0000 
     62 H62        -3.4087    0.6870    2.9596 H         1 UNK         0.0000 
     63 H63         2.0007    3.5858    1.5698 H         1 UNK         0.0000 
     64 H64         0.4292    4.2726    1.5463 H         1 UNK         0.0000 
     65 H65         1.6828    2.7672   -0.8036 H         1 UNK         0.0000 
     66 H66         0.0600    3.4044   -0.8107 H         1 UNK         0.0000 
     67 H67         1.0044    5.7222   -0.4328 H         1 UNK         0.0000 
     68 H68         2.6079    5.0750   -0.5124 H         1 UNK         0.0000 
     69 H69        -0.5114    5.7194   -2.5957 H         1 UNK         0.0000 
     70 H70         2.8861    2.8752   -4.5387 H         1 UNK         0.0000 
     71 H71        -0.7289    2.1158   -5.4362 H         1 UNK         0.0000 
     72 H72         0.8793    1.4552   -5.4422 H         1 UNK         0.0000 
     73 H73         0.8890    1.5073   -2.9250 H         1 UNK         0.0000 
     74 H74        -0.7807    2.0246   -2.9323 H         1 UNK         0.0000 
     75 H75        -1.4080   -0.1250   -4.1182 H         1 UNK         0.0000 
     76 H76         0.2427   -0.6508   -4.0275 H         1 UNK         0.0000 
     77 H77        -3.8141   -0.8442   -2.2657 H         1 UNK         0.0000 
     78 H78        -5.0054   -2.2328   -3.7565 H         1 UNK         0.0000 
     79 H79        -4.0261   -2.9620   -5.0239 H         1 UNK         0.0000 
     80 H80        -4.5451   -3.9170   -3.6293 H         1 UNK         0.0000 
     81 H81        -0.8479   -3.1312   -2.8468 H         1 UNK         0.0000 
     82 H82        -1.4193   -3.4535   -4.4477 H         1 UNK         0.0000 
     83 H83        -2.5263   -5.4759   -3.7476 H         1 UNK         0.0000 
     84 H84        -2.6554   -4.9037   -2.0941 H         1 UNK         0.0000 
     85 H85        -0.9175   -7.7777    0.2700 H         1 UNK         0.0000 
     86 H86        -1.2805  -10.9923    0.6625 H         1 UNK         0.0000 
     87 H87        -1.3757   -9.4791    1.5695 H         1 UNK         0.0000 
     88 H88         0.0024  -10.5640    1.8001 H         1 UNK         0.0000 
     89 H89         1.8363   -5.7634   -1.5496 H         1 UNK         0.0000 
     90 H90         2.0214   -6.7476   -0.1416 H         1 UNK         0.0000 
     91 H91        -0.2388   -5.7022    0.6870 H         1 UNK         0.0000 
     92 H92         0.0269   -4.4877   -0.5498 H         1 UNK         0.0000 
     93 H93         2.4047   -4.2385    0.6012 H         1 UNK         0.0000 
     94 H94         1.6574   -4.9702    1.9904 H         1 UNK         0.0000 
     95 H95        -0.7281   -4.6124    3.2705 H         1 UNK         0.0000 
     96 H96        -2.0784   -3.4751    3.1698 H         1 UNK         0.0000 
     97 H97        -1.7505   -4.5375    1.8217 H         1 UNK         0.0000 
     98 H98        -1.1437    3.8788    2.8035 H         1 UNK         0.0000 
@<TRIPOS>BOND
     1    1   11 nc   
     2    1   13 nc   
     3    1   31 nc   
     4    1   33 nc   
     5    1   52 nc   
     6    1   54 nc   
     7    2   56 1    
     8    2    3 1    
     9    3   58 1    
    10    3   57 1    
    11    3    4 1    
    12    4    5 1    
    13    4    6 1    
    14    4    7 1    
    15    6   59 1    
    16    7    9 2    
    17    7    8 1    
    18    8   60 1    
    19    8   61 1    
    20    8   62 1    
    21    9   10 1    
    22    9   98 1    
    23   10   11 2    
    24   10   12 am   BACKBONE|DICT|INTERRES
    25   12   13 1    
    26   12   14 1    
    27   14   64 1    
    28   14   63 1    
    29   14   15 1    
    30   15   16 1    
    31   15   65 1    
    32   15   66 1    
    33   16   68 1    
    34   16   67 1    
    35   16   17 1    
    36   17   18 1    
    37   17   19 1    
    38   17   22 1    
    39   19   69 1    
    40   19   20 am   BACKBONE|DICT|INTERRES
    41   20   21 2    
    42   20   25 1    
    43   22   23 2    
    44   22   24 am   BACKBONE|DICT|INTERRES
    45   24   25 1    
    46   24   70 1    
    47   25   26 1    
    48   25   27 1    
    49   27   28 1    
    50   27   71 1    
    51   27   72 1    
    52   28   74 1    
    53   28   73 1    
    54   28   29 1    
    55   29   30 1    
    56   29   75 1    
    57   29   76 1    
    58   30   32 am   BACKBONE|DICT|INTERRES
    59   30   31 1    
    60   32   34 1    
    61   32   33 2    
    62   34   77 1    
    63   34   35 2    
    64   35   36 1    
    65   35   37 1    
    66   36   78 1    
    67   36   80 1    
    68   36   79 1    
    69   37   38 1    
    70   37   81 1    
    71   37   82 1    
    72   38   39 1    
    73   38   84 1    
    74   38   83 1    
    75   39   40 1    
    76   40   42 1    
    77   40   41 2    
    78   42   43 1    
    79   42   48 1    
    80   42   44 1    
    81   44   45 am   BACKBONE|DICT|INTERRES
    82   44   85 1    
    83   45   47 1    
    84   45   46 2    
    85   47   87 1    
    86   47   88 1    
    87   47   86 1    
    88   48   90 1    
    89   48   49 1    
    90   48   89 1    
    91   49   91 1    
    92   49   50 1    
    93   49   92 1    
    94   50   51 1    
    95   50   94 1    
    96   50   93 1    
    97   51   53 am   BACKBONE|DICT|INTERRES
    98   51   52 1    
    99   53   55 1    
   100   53   54 2    
   101   55   96 1    
   102   55   95 1    
   103   55   97 1    
@<TRIPOS>SUBSTRUCTURE
     1 UNK         1 GROUP             0       ****    0 ROOT    
@<TRIPOS>MOLECULE
171_c1
98   103    1
SMALL
USER_CHARGES


@<TRIPOS>ATOM
      1 Fe1         0.1533    1.2286    1.2895 Fe        1 UNK         0.0000 
      2 O2          2.1776    0.6955    1.1937 O.co2     1 UNK         0.0000 
      3 C3          2.5731   -0.4355    1.4592 C.2       1 UNK         0.0000 
      4 C4          3.9720   -0.9175    1.0962 C.3       1 UNK         0.0000 
      5 N5          1.6257   -1.2029    2.0263 N.am      1 UNK         0.0000 
      6 O6          0.4611   -0.6214    2.3186 O.co2     1 UNK         0.0000 
      7 C7          1.6709   -2.6711    2.1574 C.3       1 UNK         0.0000 
      8 C8          1.7014   -3.4289    0.8006 C.3       1 UNK         0.0000 
      9 C9          1.6313   -4.9703    0.9455 C.3       1 UNK         0.0000 
     10 C10         0.3251   -5.6330    0.4343 C.3       1 UNK         0.0000 
     11 H11         0.4056   -6.6959    0.6711 H         1 UNK         0.0000 
     12 N12         0.1727   -5.5539   -1.0343 N.am      1 UNK         0.0000 
     13 C13        -0.9265   -5.1906   -1.7061 C.2       1 UNK         0.0000 
     14 O14        -0.9296   -5.2830   -2.9282 O.2       1 UNK         0.0000 
     15 C15        -0.8959   -5.1953    1.3040 C.2       1 UNK         0.0000 
     16 O16        -0.9386   -5.2632    2.5277 O.2       1 UNK         0.0000 
     17 N17        -1.9631   -4.7488    0.6288 N.am      1 UNK         0.0000 
     18 C18        -2.1279   -4.6912   -0.8425 C.3       1 UNK         0.0000 
     19 H19        -2.9036   -5.4170   -1.0886 H         1 UNK         0.0000 
     20 C20        -2.6333   -3.3170   -1.3680 C.3       1 UNK         0.0000 
     21 C21        -1.6987   -2.1293   -1.0381 C.3       1 UNK         0.0000 
     22 C22        -2.1675   -0.7485   -1.5911 C.3       1 UNK         0.0000 
     23 N23        -1.4624    0.3968   -0.9829 N.am      1 UNK         0.0000 
     24 O24        -1.5806    0.4413    0.3380 O.co2     1 UNK         0.0000 
     25 C25        -0.5795    1.2601   -1.5438 C.2       1 UNK         0.0000 
     26 O26         0.0481    1.8948   -0.6961 O.co2     1 UNK         0.0000 
     27 C27        -0.3371    1.3624   -2.9656 C.2       1 UNK         0.0000 
     28 C28         0.5143    2.2385   -3.5753 C.2       1 UNK         0.0000 
     29 C29         0.7060    2.1943   -5.0855 C.3       1 UNK         0.0000 
     30 C30         1.3879    3.3216   -2.8986 C.3       1 UNK         0.0000 
     31 C31         0.8473    4.7568   -3.0648 C.3       1 UNK         0.0000 
     32 O32         1.4638    5.5992   -2.0950 O.3       1 UNK         0.0000 
     33 C33         1.0812    6.8887   -1.9603 C.2       1 UNK         0.0000 
     34 O34         0.3101    7.4637   -2.7356 O.2       1 UNK         0.0000 
     35 C35         1.6829    7.5349   -0.6955 C.3       1 UNK         0.0000 
     36 H36         2.7329    7.2307   -0.6273 H         1 UNK         0.0000 
     37 N37         1.5775    8.9984   -0.8547 N.am      1 UNK         0.0000 
     38 C38         2.5918    9.8743   -0.7841 C.2       1 UNK         0.0000 
     39 O39         3.7546    9.5211   -0.6156 O.2       1 UNK         0.0000 
     40 C40         2.2570   11.3565   -0.9151 C.3       1 UNK         0.0000 
     41 C41         0.9570    7.0963    0.6136 C.3       1 UNK         0.0000 
     42 C42         0.8496    5.5699    0.8475 C.3       1 UNK         0.0000 
     43 C43         0.3072    5.1435    2.2407 C.3       1 UNK         0.0000 
     44 N44         0.0576    3.6839    2.3885 N.am      1 UNK         0.0000 
     45 O45         0.7546    2.8785    1.5987 O.co2     1 UNK         0.0000 
     46 C46        -0.8794    3.0652    3.1457 C.2       1 UNK         0.0000 
     47 O47        -0.9874    1.8729    2.8238 O.co2     1 UNK         0.0000 
     48 C48        -1.5872    3.7473    4.2087 C.2       1 UNK         0.0000 
     49 C49        -2.2435    3.1304    5.2279 C.2       1 UNK         0.0000 
     50 C50        -2.2885    1.6026    5.4124 C.3       1 UNK         0.0000 
     51 C51        -2.9651    3.9415    6.3069 C.3       1 UNK         0.0000 
     52 H52        -2.8527    5.0091    6.0967 H         1 UNK         0.0000 
     53 O53        -2.2765    3.7049    7.5245 O.3       1 UNK         0.0000 
     54 C54        -4.4914    3.6386    6.4087 C.3       1 UNK         0.0000 
     55 O55        -5.1550    4.4188    7.3960 O.3       1 UNK         0.0000 
     56 H56         4.7085   -0.2503    1.5418 H         1 UNK         0.0000 
     57 H57         4.1713   -1.9313    1.4428 H         1 UNK         0.0000 
     58 H58         4.0805   -0.8832    0.0133 H         1 UNK         0.0000 
     59 H59         0.7974   -3.0150    2.7265 H         1 UNK         0.0000 
     60 H60         2.5236   -2.9699    2.7744 H         1 UNK         0.0000 
     61 H61         2.6251   -3.1847    0.2722 H         1 UNK         0.0000 
     62 H62         0.8954   -3.0724    0.1582 H         1 UNK         0.0000 
     63 H63         1.8193   -5.2731    1.9786 H         1 UNK         0.0000 
     64 H64         2.4671   -5.4031    0.3927 H         1 UNK         0.0000 
     65 H65         0.9251   -5.8369   -1.6391 H         1 UNK         0.0000 
     66 H66        -2.7007   -4.4378    1.2378 H         1 UNK         0.0000 
     67 H67        -2.8260   -3.3626   -2.4431 H         1 UNK         0.0000 
     68 H68        -3.6073   -3.1117   -0.9179 H         1 UNK         0.0000 
     69 H69        -1.6073   -2.0858    0.0505 H         1 UNK         0.0000 
     70 H70        -0.6966   -2.3347   -1.4186 H         1 UNK         0.0000 
     71 H71        -3.2318   -0.6081   -1.3757 H         1 UNK         0.0000 
     72 H72        -2.1168   -0.7596   -2.6776 H         1 UNK         0.0000 
     73 H73         0.3875    3.1314   -5.5451 H         1 UNK         0.0000 
     74 H74         1.7586    2.0393   -5.3393 H         1 UNK         0.0000 
     75 H75         0.1405    1.3881   -5.5598 H         1 UNK         0.0000 
     76 H76         1.5406    3.1502   -1.8348 H         1 UNK         0.0000 
     77 H77         2.4003    3.2720   -3.3059 H         1 UNK         0.0000 
     78 H78         1.0560    5.1326   -4.0675 H         1 UNK         0.0000 
     79 H79        -0.2350    4.7637   -2.9170 H         1 UNK         0.0000 
     80 H80         0.6447    9.3500   -1.0196 H         1 UNK         0.0000 
     81 H81         1.1828   11.5362   -0.9810 H         1 UNK         0.0000 
     82 H82         2.7322   11.7723   -1.8047 H         1 UNK         0.0000 
     83 H83         2.6390   11.8927   -0.0459 H         1 UNK         0.0000 
     84 H84        -0.0478    7.5191    0.6226 H         1 UNK         0.0000 
     85 H85         1.4712    7.5533    1.4613 H         1 UNK         0.0000 
     86 H86         0.1979    5.1404    0.0837 H         1 UNK         0.0000 
     87 H87         1.8417    5.1267    0.7104 H         1 UNK         0.0000 
     88 H88        -0.6037    5.7060    2.4295 H         1 UNK         0.0000 
     89 H89         1.0131    5.4612    3.0078 H         1 UNK         0.0000 
     90 H90        -2.7347    1.2929    6.3591 H         1 UNK         0.0000 
     91 H91        -2.8774    1.1499    4.6160 H         1 UNK         0.0000 
     92 H92        -1.2823    1.1785    5.3962 H         1 UNK         0.0000 
     93 H93        -2.6164    2.8983    7.9143 H         1 UNK         0.0000 
     94 H94        -4.6627    2.5834    6.6201 H         1 UNK         0.0000 
     95 H95        -4.9602    3.8301    5.4413 H         1 UNK         0.0000 
     96 H96        -6.0793    4.1626    7.4639 H         1 UNK         0.0000 
     97 H97        -0.8923    0.6538   -3.5604 H         1 UNK         0.0000 
     98 H98        -1.5561    4.8234    4.1516 H         1 UNK         0.0000 
@<TRIPOS>BOND
     1    1    2 nc   
     2    1    6 nc   
     3    1   24 nc   
     4    1   26 nc   
     5    1   45 nc   
     6    1   47 nc   
     7    2    3 2    
     8    3    4 1    
     9    3    5 am   BACKBONE|DICT|INTERRES
    10    4   57 1    
    11    4   56 1    
    12    4   58 1    
    13    5    7 1    
    14    5    6 1    
    15    7   59 1    
    16    7   60 1    
    17    7    8 1    
    18    8    9 1    
    19    8   61 1    
    20    8   62 1    
    21    9   63 1    
    22    9   10 1    
    23    9   64 1    
    24   10   11 1    
    25   10   15 1    
    26   10   12 1    
    27   12   13 am   BACKBONE|DICT|INTERRES
    28   12   65 1    
    29   13   18 1    
    30   13   14 2    
    31   15   16 2    
    32   15   17 am   BACKBONE|DICT|INTERRES
    33   17   66 1    
    34   17   18 1    
    35   18   19 1    
    36   18   20 1    
    37   20   21 1    
    38   20   68 1    
    39   20   67 1    
    40   21   69 1    
    41   21   22 1    
    42   21   70 1    
    43   22   71 1    
    44   22   23 1    
    45   22   72 1    
    46   23   24 1    
    47   23   25 am   BACKBONE|DICT|INTERRES
    48   25   26 2    
    49   25   27 1    
    50   27   28 2    
    51   27   97 1    
    52   28   29 1    
    53   28   30 1    
    54   29   73 1    
    55   29   74 1    
    56   29   75 1    
    57   30   76 1    
    58   30   31 1    
    59   30   77 1    
    60   31   79 1    
    61   31   32 1    
    62   31   78 1    
    63   32   33 1    
    64   33   35 1    
    65   33   34 2    
    66   35   36 1    
    67   35   41 1    
    68   35   37 1    
    69   37   38 am   BACKBONE|DICT|INTERRES
    70   37   80 1    
    71   38   39 2    
    72   38   40 1    
    73   40   83 1    
    74   40   81 1    
    75   40   82 1    
    76   41   84 1    
    77   41   42 1    
    78   41   85 1    
    79   42   43 1    
    80   42   86 1    
    81   42   87 1    
    82   43   88 1    
    83   43   44 1    
    84   43   89 1    
    85   44   46 am   BACKBONE|DICT|INTERRES
    86   44   45 1    
    87   46   48 1    
    88   46   47 2    
    89   48   49 2    
    90   48   98 1    
    91   49   50 1    
    92   49   51 1    
    93   50   92 1    
    94   50   90 1    
    95   50   91 1    
    96   51   52 1    
    97   51   54 1    
    98   51   53 1    
    99   53   93 1    
   100   54   94 1    
   101   54   55 1    
   102   54   95 1    
   103   55   96 1    
@<TRIPOS>SUBSTRUCTURE
     1 UNK         1 GROUP             0       ****    0 ROOT    
@<TRIPOS>MOLECULE
172_c1
99   104    1
SMALL
USER_CHARGES


@<TRIPOS>ATOM
      1 Fe1        -0.2381   -0.3007   -0.7446 Fe        1 UNK         0.0000 
      2 O2          4.0270    4.5759   -6.7275 O.3       1 UNK         0.0000 
      3 C3          3.2562    3.5750   -6.1001 C.3       1 UNK         0.0000 
      4 C4          3.3075    3.7676   -4.5784 C.3       1 UNK         0.0000 
      5 C5          2.5105    2.7281   -3.8074 C.2       1 UNK         0.0000 
      6 C6          3.0853    1.3126   -3.9244 C.3       1 UNK         0.0000 
      7 C7          1.3999    3.0793   -3.0964 C.2       1 UNK         0.0000 
      8 C8          0.6244    2.1576   -2.2832 C.2       1 UNK         0.0000 
      9 O9          1.0771    1.0643   -1.9601 O.co2     1 UNK         0.0000 
     10 N10        -0.6488    2.4194   -1.8754 N.am      1 UNK         0.0000 
     11 O11        -1.4527    1.4435   -1.4364 O.co2     1 UNK         0.0000 
     12 C12        -1.1734    3.7597   -1.5635 C.3       1 UNK         0.0000 
     13 C13        -1.2250    4.0365   -0.0396 C.3       1 UNK         0.0000 
     14 C14        -1.7791    5.4325    0.3108 C.3       1 UNK         0.0000 
     15 C15        -1.8197    5.7657    1.8280 C.3       1 UNK         0.0000 
     16 H16        -2.2345    6.7734    1.9046 H         1 UNK         0.0000 
     17 C17        -0.3701    5.9669    2.3784 C.2       1 UNK         0.0000 
     18 O18         0.4866    6.6731    1.8576 O.2       1 UNK         0.0000 
     19 N19        -0.0697    5.3166    3.5097 N.am      1 UNK         0.0000 
     20 C20        -0.9616    4.4126    4.2658 C.3       1 UNK         0.0000 
     21 H21        -1.0940    4.8588    5.2530 H         1 UNK         0.0000 
     22 C22        -2.4379    4.2837    3.7640 C.2       1 UNK         0.0000 
     23 O23        -3.3313    3.7020    4.3678 O.2       1 UNK         0.0000 
     24 N24        -2.7213    4.8889    2.6031 N.am      1 UNK         0.0000 
     25 C25        -0.3444    3.0040    4.4937 C.3       1 UNK         0.0000 
     26 C26        -0.0297    2.2541    3.1885 C.3       1 UNK         0.0000 
     27 C27         0.5292    0.8193    3.3634 C.3       1 UNK         0.0000 
     28 N28         0.6107    0.1017    2.0779 N.am      1 UNK         0.0000 
     29 O29        -0.5524    0.0768    1.4259 O.co2     1 UNK         0.0000 
     30 C30         1.7353   -0.4362    1.5396 C.2       1 UNK         0.0000 
     31 O31         1.7127   -0.7488    0.3431 O.co2     1 UNK         0.0000 
     32 C32         2.8597   -0.7825    2.3795 C.2       1 UNK         0.0000 
     33 C33         3.1790   -2.0562    2.7239 C.2       1 UNK         0.0000 
     34 C34         4.4154   -2.3489    3.5590 C.3       1 UNK         0.0000 
     35 C35         2.3678   -3.3028    2.3506 C.3       1 UNK         0.0000 
     36 C36         3.1153   -4.3582    1.5058 C.3       1 UNK         0.0000 
     37 O37         2.2064   -5.2851    0.9176 O.3       1 UNK         0.0000 
     38 C38         1.5481   -6.2253    1.6449 C.2       1 UNK         0.0000 
     39 O39         1.7760   -6.4650    2.8369 O.2       1 UNK         0.0000 
     40 C40         0.5010   -6.9599    0.7951 C.3       1 UNK         0.0000 
     41 H41         1.0078   -7.2895   -0.1166 H         1 UNK         0.0000 
     42 N42         0.0771   -8.1649    1.5379 N.am      1 UNK         0.0000 
     43 C43        -0.5482   -9.2132    0.9846 C.2       1 UNK         0.0000 
     44 O44        -0.8140   -9.2648   -0.2121 O.2       1 UNK         0.0000 
     45 C45        -0.9296  -10.3705    1.8981 C.3       1 UNK         0.0000 
     46 C46        -0.7194   -6.0584    0.4084 C.3       1 UNK         0.0000 
     47 C47        -0.3834   -4.7404   -0.3150 C.3       1 UNK         0.0000 
     48 C48        -1.5351   -4.2020   -1.1785 C.3       1 UNK         0.0000 
     49 N49        -1.3257   -2.9105   -1.8363 N.3       1 UNK         0.0000 
     50 O50        -1.6548   -1.8924   -0.8977 O.co2     1 UNK         0.0000 
     51 C51        -0.1306   -2.5044   -2.6078 C.3       1 UNK         0.0000 
     52 O52         0.5856   -1.4370   -2.0326 O.3       1 UNK         0.0000 
     53 C53         0.9347   -3.5527   -2.9463 C.3       1 UNK         0.0000 
     54 H54         4.9643    4.3801   -6.6314 H         1 UNK         0.0000 
     55 H55         3.6305    2.5941   -6.4028 H         1 UNK         0.0000 
     56 H56         2.2261    3.6460   -6.4560 H         1 UNK         0.0000 
     57 H57         4.3387    3.7236   -4.2293 H         1 UNK         0.0000 
     58 H58         2.9593    4.7704   -4.3330 H         1 UNK         0.0000 
     59 H59         2.3538    0.6402   -4.3777 H         1 UNK         0.0000 
     60 H60         3.3766    0.9229   -2.9486 H         1 UNK         0.0000 
     61 H61         3.9814    1.2713   -4.5438 H         1 UNK         0.0000 
     62 H62        -2.1842    3.8409   -1.9749 H         1 UNK         0.0000 
     63 H63        -0.6339    4.5785   -2.0434 H         1 UNK         0.0000 
     64 H64        -1.8456    3.2829    0.4474 H         1 UNK         0.0000 
     65 H65        -0.2239    3.9219    0.3754 H         1 UNK         0.0000 
     66 H66        -2.7928    5.5094   -0.0864 H         1 UNK         0.0000 
     67 H67        -1.2067    6.1944   -0.2216 H         1 UNK         0.0000 
     68 H68         0.8789    5.4459    3.8202 H         1 UNK         0.0000 
     69 H69        -3.6634    4.7361    2.2787 H         1 UNK         0.0000 
     70 H70        -1.0095    2.3982    5.1146 H         1 UNK         0.0000 
     71 H71         0.5791    3.1044    5.0632 H         1 UNK         0.0000 
     72 H72         0.6686    2.8276    2.5800 H         1 UNK         0.0000 
     73 H73        -0.9567    2.2094    2.6183 H         1 UNK         0.0000 
     74 H74        -0.1425    0.2478    4.0089 H         1 UNK         0.0000 
     75 H75         1.4695    0.8517    3.9250 H         1 UNK         0.0000 
     76 H76         3.4585    0.0541    2.7094 H         1 UNK         0.0000 
     77 H77         4.9389   -1.4381    3.8481 H         1 UNK         0.0000 
     78 H78         5.1219   -2.9621    2.9993 H         1 UNK         0.0000 
     79 H79         4.1453   -2.8805    4.4701 H         1 UNK         0.0000 
     80 H80         2.0216   -3.7653    3.2742 H         1 UNK         0.0000 
     81 H81         1.4578   -3.0206    1.8243 H         1 UNK         0.0000 
     82 H82         3.8647   -4.8885    2.0960 H         1 UNK         0.0000 
     83 H83         3.6331   -3.8641    0.6832 H         1 UNK         0.0000 
     84 H84         0.3200   -8.1757    2.5205 H         1 UNK         0.0000 
     85 H85        -2.0134  -10.4839    1.9093 H         1 UNK         0.0000 
     86 H86        -0.4941  -11.2963    1.5230 H         1 UNK         0.0000 
     87 H87        -0.5875  -10.2140    2.9207 H         1 UNK         0.0000 
     88 H88        -1.3594   -6.6492   -0.2515 H         1 UNK         0.0000 
     89 H89        -1.3331   -5.8520    1.2886 H         1 UNK         0.0000 
     90 H90         0.4389   -5.0031   -0.9627 H         1 UNK         0.0000 
     91 H91        -0.0394   -3.9786    0.3826 H         1 UNK         0.0000 
     92 H92        -2.4358   -4.1639   -0.5611 H         1 UNK         0.0000 
     93 H93        -1.7921   -4.9287   -1.9475 H         1 UNK         0.0000 
     94 H94         1.5483   -3.2061   -3.7790 H         1 UNK         0.0000 
     95 H95         1.6182   -3.7260   -2.1138 H         1 UNK         0.0000 
     96 H96         0.4850   -4.5018   -3.2403 H         1 UNK         0.0000 
     97 H97        -0.5336   -2.1235   -3.5483 H         1 UNK         0.0000 
     98 H98         1.4207   -1.4822   -2.5377 H         1 UNK         0.0000 
     99 H99         1.0624    4.1036   -3.1220 H         1 UNK         0.0000 
@<TRIPOS>BOND
     1    1    9 nc   
     2    1   11 nc   
     3    1   29 nc   
     4    1   31 nc   
     5    1   50 nc   
     6    1   52 nc   
     7    2   54 1    
     8    2    3 1    
     9    3    4 1    
    10    3   55 1    
    11    3   56 1    
    12    4   58 1    
    13    4   57 1    
    14    4    5 1    
    15    5    7 2    
    16    5    6 1    
    17    6   60 1    
    18    6   59 1    
    19    6   61 1    
    20    7    8 1    
    21    7   99 1    
    22    8    9 2    
    23    8   10 am   BACKBONE|DICT|INTERRES
    24   10   12 1    
    25   10   11 1    
    26   12   13 1    
    27   12   62 1    
    28   12   63 1    
    29   13   14 1    
    30   13   65 1    
    31   13   64 1    
    32   14   15 1    
    33   14   66 1    
    34   14   67 1    
    35   15   16 1    
    36   15   17 1    
    37   15   24 1    
    38   17   19 am   BACKBONE|DICT|INTERRES
    39   17   18 2    
    40   19   68 1    
    41   19   20 1    
    42   20   25 1    
    43   20   21 1    
    44   20   22 1    
    45   22   23 2    
    46   22   24 am   BACKBONE|DICT|INTERRES
    47   24   69 1    
    48   25   71 1    
    49   25   70 1    
    50   25   26 1    
    51   26   27 1    
    52   26   72 1    
    53   26   73 1    
    54   27   75 1    
    55   27   74 1    
    56   27   28 1    
    57   28   29 1    
    58   28   30 am   BACKBONE|DICT|INTERRES
    59   30   31 2    
    60   30   32 1    
    61   32   33 2    
    62   32   76 1    
    63   33   34 1    
    64   33   35 1    
    65   34   77 1    
    66   34   79 1    
    67   34   78 1    
    68   35   80 1    
    69   35   36 1    
    70   35   81 1    
    71   36   82 1    
    72   36   37 1    
    73   36   83 1    
    74   37   38 1    
    75   38   39 2    
    76   38   40 1    
    77   40   41 1    
    78   40   42 1    
    79   40   46 1    
    80   42   84 1    
    81   42   43 am   BACKBONE|DICT|INTERRES
    82   43   45 1    
    83   43   44 2    
    84   45   87 1    
    85   45   85 1    
    86   45   86 1    
    87   46   89 1    
    88   46   47 1    
    89   46   88 1    
    90   47   91 1    
    91   47   48 1    
    92   47   90 1    
    93   48   92 1    
    94   48   49 1    
    95   48   93 1    
    96   49   50 1    
    97   49   51 1    
    98   51   53 1    
    99   51   52 1    
   100   51   97 1    
   101   52   98 1    
   102   53   95 1    
   103   53   94 1    
   104   53   96 1    
@<TRIPOS>SUBSTRUCTURE
     1 UNK         1 GROUP             0       ****    0 ROOT    
@<TRIPOS>MOLECULE
174_c1
43   48    1
SMALL
USER_CHARGES


@<TRIPOS>ATOM
      1 Fe1        -0.0006    0.0538   -0.0543 Fe        1 UNK         0.0000 
      2 C2          2.9256    1.0340   -3.3546 C.ar      1 UNK         0.0000 
      3 C3          2.2771    2.2677   -3.3412 C.ar      1 UNK         0.0000 
      4 C4          1.5831    2.6755   -2.2027 C.ar      1 UNK         0.0000 
      5 C5          1.5284    1.8499   -1.0797 C.ar      1 UNK         0.0000 
      6 O6          0.6869    2.1377   -0.1525 O.co2     1 UNK         0.0000 
      7 C7          2.2410    0.6310   -1.0711 C.ar      1 UNK         0.0000 
      8 O8          2.2054   -0.0928   -0.0263 O.co2     1 UNK         0.0000 
      9 C9          2.9198    0.1907   -2.2316 C.ar      1 UNK         0.0000 
     10 C10         3.6162   -1.1597   -2.3336 C.2       1 UNK         0.0000 
     11 O11         4.7627   -1.2400   -2.7810 O.2       1 UNK         0.0000 
     12 N12         2.9721   -2.2837   -1.9624 N.am      1 UNK         0.0000 
     13 C13         1.5170   -2.5110   -1.9177 C.3       1 UNK         0.0000 
     14 C14         0.9833   -2.8675   -0.5098 C.2       1 UNK         0.0000 
     15 O15         0.0739   -2.1258   -0.0181 O.co2     1 UNK         0.0000 
     16 O16         1.4324   -3.9240    0.0091 O.co2     1 UNK         0.0000 
     17 H17         3.4337    0.7202   -4.2573 H         1 UNK         0.0000 
     18 H18         2.2728    2.8820   -4.2278 H         1 UNK         0.0000 
     19 H19         1.0177    3.5906   -2.2197 H         1 UNK         0.0000 
     20 H20         3.5465   -3.0702   -1.7237 H         1 UNK         0.0000 
     21 H21         1.2882   -3.3613   -2.5529 H         1 UNK         0.0000 
     22 H22         0.9591   -1.6959   -2.3691 H         1 UNK         0.0000 
     23 C23        -2.9346    3.3512   -1.0311 C.ar      1 UNK         0.0000 
     24 C24        -2.2854    3.3401   -2.2645 C.ar      1 UNK         0.0000 
     25 C25        -1.5892    2.2034   -2.6733 C.ar      1 UNK         0.0000 
     26 C26        -1.5327    1.0799   -1.8488 C.ar      1 UNK         0.0000 
     27 O27        -0.6899    0.1537   -2.1374 O.co2     1 UNK         0.0000 
     28 C28        -2.2457    1.0692   -0.6297 C.ar      1 UNK         0.0000 
     29 O29        -2.2068    0.0241    0.0934 O.co2     1 UNK         0.0000 
     30 C30        -2.9266    2.2278   -0.1885 C.ar      1 UNK         0.0000 
     31 C31        -3.6229    2.3271    1.1625 C.2       1 UNK         0.0000 
     32 O32        -4.7698    2.7733    1.2436 O.2       1 UNK         0.0000 
     33 N33        -2.9780    1.9543    2.2857 N.am      1 UNK         0.0000 
     34 C34        -1.5229    1.9148    2.5131 C.3       1 UNK         0.0000 
     35 C35        -0.9836    0.5092    2.8694 C.2       1 UNK         0.0000 
     36 O36        -0.0750    0.0185    2.1254 O.co2     1 UNK         0.0000 
     37 O37        -1.4276   -0.0088    3.9277 O.co2     1 UNK         0.0000 
     38 H38        -3.4446    4.2527   -0.7168 H         1 UNK         0.0000 
     39 H39        -2.2824    4.2274   -2.8781 H         1 UNK         0.0000 
     40 H40        -1.0237    2.2223   -3.5879 H         1 UNK         0.0000 
     41 H41        -3.5507    1.7090    3.0709 H         1 UNK         0.0000 
     42 H42        -1.2949    2.5522    3.3604 H         1 UNK         0.0000 
     43 H43        -0.9669    2.3669    1.6947 H         1 UNK         0.0000 
@<TRIPOS>BOND
     1    1    6 nc   
     2    1    8 nc   
     3    1   15 nc   
     4    1   27 nc   
     5    1   29 nc   
     6    1   36 nc   
     7    2    3 ar   
     8    2    9 ar   
     9    2   17 1    
    10    3    4 ar   
    11    3   18 1    
    12    4    5 ar   
    13    4   19 1    
    14    5    7 ar   
    15    5    6 1    
    16    7    8 1    
    17    7    9 ar   
    18    9   10 1    
    19   10   12 am   BACKBONE|DICT|INTERRES
    20   10   11 2    
    21   12   20 1    
    22   12   13 1    
    23   13   14 1    
    24   13   21 1    
    25   13   22 1    
    26   14   15 1    
    27   14   16 2    
    28   23   38 1    
    29   23   30 ar   
    30   23   24 ar   
    31   24   25 ar   
    32   24   39 1    
    33   25   26 ar   
    34   25   40 1    
    35   26   28 ar   
    36   26   27 1    
    37   28   30 ar   
    38   28   29 1    
    39   30   31 1    
    40   31   32 2    
    41   31   33 am   BACKBONE|DICT|INTERRES
    42   33   34 1    
    43   33   41 1    
    44   34   35 1    
    45   34   42 1    
    46   34   43 1    
    47   35   37 2    
    48   35   36 1    
@<TRIPOS>SUBSTRUCTURE
     1 UNK         1 GROUP             0       ****    0 ROOT    
@<TRIPOS>MOLECULE
175_c1
68   75    1
SMALL
USER_CHARGES


@<TRIPOS>ATOM
      1 Fe1         0.2209   -0.8553    1.9552 Fe        1 UNK         0.0000 
      2 O2          0.2643   -3.0127    1.8656 O.co2     1 UNK         0.0000 
      3 N3         -0.5953   -3.6308    1.0584 N.am      1 UNK         0.0000 
      4 C4         -0.3429   -5.0254    0.6639 C.3       1 UNK         0.0000 
      5 C5         -1.6308   -5.6570    0.1117 C.3       1 UNK         0.0000 
      6 C6         -2.1422   -4.8045   -1.0444 C.3       1 UNK         0.0000 
      7 C7         -2.4456   -3.3540   -0.6055 C.3       1 UNK         0.0000 
      8 H8         -3.3649   -3.3568   -0.0267 H         1 UNK         0.0000 
      9 C9         -1.4356   -2.7599    0.4317 C.2       1 UNK         0.0000 
     10 O10        -1.3797   -1.5630    0.7327 O.co2     1 UNK         0.0000 
     11 N11        -2.7218   -2.4064   -1.7012 N.am      1 UNK         0.0000 
     12 C12        -1.8495   -2.0701   -2.6707 C.2       1 UNK         0.0000 
     13 O13        -0.7360   -2.5875   -2.8008 O.2       1 UNK         0.0000 
     14 C14        -2.3256   -1.0368   -3.7008 C.3       1 UNK         0.0000 
     15 N15        -1.5323    0.1582   -3.4458 N.am      1 UNK         0.0000 
     16 C16        -2.0273    1.3466   -3.0821 C.2       1 UNK         0.0000 
     17 O17        -3.2308    1.6308   -3.1856 O.2       1 UNK         0.0000 
     18 C18        -0.9849    2.3896   -2.5859 C.3       1 UNK         0.0000 
     19 H19        -0.5623    2.7063   -3.5379 H         1 UNK         0.0000 
     20 N20         0.1647    1.8231   -1.8522 N.am      1 UNK         0.0000 
     21 C21         1.4288    1.6242   -2.2822 C.2       1 UNK         0.0000 
     22 O22         1.7901    2.0012   -3.4036 O.2       1 UNK         0.0000 
     23 C23         2.3705    0.8584   -1.3407 C.ar      1 UNK         0.0000 
     24 C24         1.9570    0.3500   -0.0760 C.ar      1 UNK         0.0000 
     25 O25         0.7559    0.3801    0.2992 O.co2     1 UNK         0.0000 
     26 C26         2.8456   -0.2979    0.7943 C.ar      1 UNK         0.0000 
     27 O27         2.4640   -0.6929    1.9533 O.co2     1 UNK         0.0000 
     28 C28         4.1361   -0.5594    0.3615 C.ar      1 UNK         0.0000 
     29 C29         4.5552   -0.1649   -0.9152 C.ar      1 UNK         0.0000 
     30 C30         3.6938    0.5663   -1.7423 C.ar      1 UNK         0.0000 
     31 C31        -1.5815    3.7012   -1.9898 C.3       1 UNK         0.0000 
     32 C32        -2.6551    3.6586   -0.8579 C.3       1 UNK         0.0000 
     33 C33        -2.1005    3.7226    0.5843 C.3       1 UNK         0.0000 
     34 N34        -2.3114    2.5310    1.3979 N.am      1 UNK         0.0000 
     35 C35        -3.1682    2.3364    2.4135 C.2       1 UNK         0.0000 
     36 O36        -4.1323    3.0836    2.6226 O.2       1 UNK         0.0000 
     37 C37        -2.8570    1.1312    3.3059 C.ar      1 UNK         0.0000 
     38 C38        -1.6131    0.4629    3.2553 C.ar      1 UNK         0.0000 
     39 O39        -0.7475    0.6404    2.3672 O.co2     1 UNK         0.0000 
     40 C40        -1.2860   -0.6007    4.0884 C.ar      1 UNK         0.0000 
     41 O41        -0.1632   -1.1433    3.8440 O.co2     1 UNK         0.0000 
     42 C42        -2.2438   -1.0917    4.9705 C.ar      1 UNK         0.0000 
     43 C43        -3.5136   -0.4866    5.0191 C.ar      1 UNK         0.0000 
     44 C44        -3.8092    0.6278    4.2105 C.ar      1 UNK         0.0000 
     45 H45         0.4403   -5.0237   -0.0870 H         1 UNK         0.0000 
     46 H46         0.0520   -5.5962    1.4997 H         1 UNK         0.0000 
     47 H47        -2.3834   -5.7446    0.8988 H         1 UNK         0.0000 
     48 H48        -1.4272   -6.6748   -0.2224 H         1 UNK         0.0000 
     49 H49        -3.0450   -5.2439   -1.4577 H         1 UNK         0.0000 
     50 H50        -1.4087   -4.8197   -1.8447 H         1 UNK         0.0000 
     51 H51        -3.5200   -1.7996   -1.5730 H         1 UNK         0.0000 
     52 H52        -3.4065   -0.8686   -3.6430 H         1 UNK         0.0000 
     53 H53        -2.1112   -1.4075   -4.7067 H         1 UNK         0.0000 
     54 H54        -0.5316    0.0124   -3.3382 H         1 UNK         0.0000 
     55 H55         0.0400    1.4187   -0.9133 H         1 UNK         0.0000 
     56 H56         4.7856   -1.1148    1.0101 H         1 UNK         0.0000 
     57 H57         5.5484   -0.4216   -1.2500 H         1 UNK         0.0000 
     58 H58         4.0585    0.8947   -2.7112 H         1 UNK         0.0000 
     59 H59        -0.7682    4.3766   -1.7193 H         1 UNK         0.0000 
     60 H60        -2.0509    4.1871   -2.8440 H         1 UNK         0.0000 
     61 H61        -3.3831    2.8545   -0.9882 H         1 UNK         0.0000 
     62 H62        -3.2529    4.5577   -0.9922 H         1 UNK         0.0000 
     63 H63        -2.5685    4.5481    1.1273 H         1 UNK         0.0000 
     64 H64        -1.0309    3.9530    0.5611 H         1 UNK         0.0000 
     65 H65        -1.4956    1.9066    1.5398 H         1 UNK         0.0000 
     66 H66        -2.0049   -1.9710    5.5506 H         1 UNK         0.0000 
     67 H67        -4.2771   -0.8851    5.6721 H         1 UNK         0.0000 
     68 H68        -4.7853    1.1022    4.2705 H         1 UNK         0.0000 
@<TRIPOS>BOND
     1    1    2 nc   
     2    1   10 nc   
     3    1   25 nc   
     4    1   27 nc   
     5    1   39 nc   
     6    1   41 nc   
     7    2    3 1    
     8    3    4 1    
     9    3    9 am   BACKBONE|DICT|INTERRES
    10    4   46 1    
    11    4    5 1    
    12    4   45 1    
    13    5   47 1    
    14    5    6 1    
    15    5   48 1    
    16    6    7 1    
    17    6   49 1    
    18    6   50 1    
    19    7    8 1    
    20    7    9 1    
    21    7   11 1    
    22    9   10 2    
    23   11   12 am   BACKBONE|DICT|INTERRES
    24   11   51 1    
    25   12   13 2    
    26   12   14 1    
    27   14   52 1    
    28   14   15 1    
    29   14   53 1    
    30   15   16 am   BACKBONE|DICT|INTERRES
    31   15   54 1    
    32   16   17 2    
    33   16   18 1    
    34   18   19 1    
    35   18   31 1    
    36   18   20 1    
    37   20   55 1    
    38   20   21 am   BACKBONE|DICT|INTERRES
    39   21   23 1    
    40   21   22 2    
    41   23   24 ar   
    42   23   30 ar   
    43   24   25 1    
    44   24   26 ar   
    45   26   27 1    
    46   26   28 ar   
    47   28   56 1    
    48   28   29 ar   
    49   29   30 ar   
    50   29   57 1    
    51   30   58 1    
    52   31   59 1    
    53   31   32 1    
    54   31   60 1    
    55   32   33 1    
    56   32   61 1    
    57   32   62 1    
    58   33   64 1    
    59   33   63 1    
    60   33   34 1    
    61   34   35 am   BACKBONE|DICT|INTERRES
    62   34   65 1    
    63   35   36 2    
    64   35   37 1    
    65   37   38 ar   
    66   37   44 ar   
    67   38   40 ar   
    68   38   39 1    
    69   40   42 ar   
    70   40   41 1    
    71   42   43 ar   
    72   42   66 1    
    73   43   67 1    
    74   43   44 ar   
    75   44   68 1    
@<TRIPOS>SUBSTRUCTURE
     1 UNK         1 GROUP             0       ****    0 ROOT    
@<TRIPOS>MOLECULE
176_c1
110   114    1
SMALL
USER_CHARGES


@<TRIPOS>ATOM
      1 Fe1        -0.2427   -0.7260   -0.6444 Fe        1 UNK         0.0000 
      2 O2          4.0276    4.8628   -3.6393 O.3       1 UNK         0.0000 
      3 C3          3.5046    4.6185   -4.8791 C.2       1 UNK         0.0000 
      4 O4          4.1276    4.1403   -5.8152 O.2       1 UNK         0.0000 
      5 C5          2.0703    5.1779   -5.0935 C.3       1 UNK         0.0000 
      6 H6          1.8497    5.9392   -4.3426 H         1 UNK         0.0000 
      7 N7          2.1549    5.9196   -6.4074 N.4       1 UNK         0.0000 
      8 H8          2.8287    6.6765   -6.3589 H         1 UNK         0.0000 
      9 H9          1.2501    6.2841   -6.6689 H         1 UNK         0.0000 
     10 H10         2.4741    5.2578   -7.1067 H         1 UNK         0.0000 
     11 C11         0.9799    4.0753   -5.1167 C.3       1 UNK         0.0000 
     12 C12         0.8178    3.2913   -3.7862 C.3       1 UNK         0.0000 
     13 C13        -0.3577    2.2900   -3.8094 C.3       1 UNK         0.0000 
     14 N14        -0.5364    1.5876   -2.5192 N.pl3     1 UNK         0.0000 
     15 O15         0.4209    0.7176   -2.2168 O.co2     1 UNK         0.0000 
     16 C16        -1.5386    1.7399   -1.6201 C.1       1 UNK         0.0000 
     17 O17        -1.4872    0.8814   -0.7316 O.co2     1 UNK         0.0000 
     18 C18        -2.6924    2.5675   -1.9154 C.2       1 UNK         0.0000 
     19 C19        -3.6273    3.1050   -0.8188 C.3       1 UNK         0.0000 
     20 C20        -5.0120    3.5450   -1.3400 C.3       1 UNK         0.0000 
     21 C21        -3.7441    2.2800    0.5023 C.3       1 UNK         0.0000 
     22 C22        -2.6365    2.6798    1.4946 C.3       1 UNK         0.0000 
     23 O23        -2.3402    1.6444    2.4135 O.3       1 UNK         0.0000 
     24 C24        -1.7081    1.9168    3.5678 C.2       1 UNK         0.0000 
     25 O25        -1.4881    3.0395    4.0294 O.2       1 UNK         0.0000 
     26 C26        -1.3279    0.6500    4.3110 C.3       1 UNK         0.0000 
     27 H27        -1.9031   -0.2059    3.9522 H         1 UNK         0.0000 
     28 N28        -1.7924    0.9109    5.7138 N.4       1 UNK         0.0000 
     29 H29        -2.7831    1.1088    5.7202 H         1 UNK         0.0000 
     30 H30        -1.2906    1.7322    6.0237 H         1 UNK         0.0000 
     31 H31        -1.5703    0.1131    6.2876 H         1 UNK         0.0000 
     32 C32         0.2020    0.4000    4.2623 C.3       1 UNK         0.0000 
     33 C33         0.6037   -1.0637    4.5341 C.3       1 UNK         0.0000 
     34 C34         0.0425   -2.0842    3.5178 C.3       1 UNK         0.0000 
     35 N35         0.2521   -1.6865    2.1130 N.am      1 UNK         0.0000 
     36 O36        -0.6908   -0.9166    1.5704 O.co2     1 UNK         0.0000 
     37 C37         1.4013   -1.8476    1.4225 C.2       1 UNK         0.0000 
     38 O38         1.4967   -1.1148    0.4358 O.co2     1 UNK         0.0000 
     39 C39         2.3588   -2.8796    1.7489 C.2       1 UNK         0.0000 
     40 C40         2.1107   -4.2054    1.9207 C.2       1 UNK         0.0000 
     41 C41         3.2804   -5.1198    2.2722 C.3       1 UNK         0.0000 
     42 C42         0.7427   -4.9109    1.7969 C.3       1 UNK         0.0000 
     43 C43         0.6962   -6.0825    0.7819 C.3       1 UNK         0.0000 
     44 O44        -0.6050   -6.2160    0.2060 O.3       1 UNK         0.0000 
     45 C45        -1.5235   -7.1132    0.6171 C.2       1 UNK         0.0000 
     46 O46        -1.3298   -7.9860    1.4638 O.2       1 UNK         0.0000 
     47 C47        -2.8418   -6.9690   -0.1665 C.3       1 UNK         0.0000 
     48 H48        -2.6415   -7.0753   -1.2328 H         1 UNK         0.0000 
     49 N49        -3.6588   -8.1862    0.1944 N.4       1 UNK         0.0000 
     50 H50        -4.5243   -8.1906   -0.3306 H         1 UNK         0.0000 
     51 H51        -3.8499   -8.1502    1.1893 H         1 UNK         0.0000 
     52 H52        -3.1195   -9.0263    0.0171 H         1 UNK         0.0000 
     53 C53        -3.6228   -5.6503    0.1026 C.3       1 UNK         0.0000 
     54 C54        -2.8749   -4.3256   -0.1671 C.3       1 UNK         0.0000 
     55 C55        -2.2424   -4.1559   -1.5856 C.3       1 UNK         0.0000 
     56 N56        -1.2552   -3.0697   -1.6476 N.am      1 UNK         0.0000 
     57 O57        -1.7199   -1.9285   -1.1014 O.co2     1 UNK         0.0000 
     58 C58         0.0858   -3.0409   -1.9879 C.2       1 UNK         0.0000 
     59 O59         0.5168   -1.9355   -1.6497 O.co2     1 UNK         0.0000 
     60 C60         1.0602   -3.9917   -2.4749 C.2       1 UNK         0.0000 
     61 C61         1.1140   -5.2556   -2.9738 C.2       1 UNK         0.0000 
     62 C62         2.5237   -5.7339   -3.3363 C.3       1 UNK         0.0000 
     63 C63        -0.0500   -6.2169   -3.2197 C.3       1 UNK         0.0000 
     64 C64         0.2023   -7.5416   -3.9816 C.3       1 UNK         0.0000 
     65 O65         0.9609   -8.4529   -3.1975 O.3       1 UNK         0.0000 
     66 H66         0.0202    4.5305   -5.3714 H         1 UNK         0.0000 
     67 H67         1.1838    3.3615   -5.9165 H         1 UNK         0.0000 
     68 H68         0.6506    3.9892   -2.9626 H         1 UNK         0.0000 
     69 H69         1.7296    2.7284   -3.5649 H         1 UNK         0.0000 
     70 H70        -0.2100    1.5453   -4.5972 H         1 UNK         0.0000 
     71 H71        -1.2471    2.8123   -4.1459 H         1 UNK         0.0000 
     72 H72        -2.8498    2.8583   -2.9388 H         1 UNK         0.0000 
     73 H73        -4.9259    4.1006   -2.2720 H         1 UNK         0.0000 
     74 H74        -5.6968    2.7087   -1.4914 H         1 UNK         0.0000 
     75 H75        -5.4797    4.2211   -0.6244 H         1 UNK         0.0000 
     76 H76        -4.6986    2.4638    1.0059 H         1 UNK         0.0000 
     77 H77        -3.7411    1.2014    0.3114 H         1 UNK         0.0000 
     78 H78        -2.9331    3.5944    2.0080 H         1 UNK         0.0000 
     79 H79        -1.7073    2.8928    0.9698 H         1 UNK         0.0000 
     80 H80         0.7316    1.0671    4.9458 H         1 UNK         0.0000 
     81 H81         0.6023    0.6639    3.2790 H         1 UNK         0.0000 
     82 H82         1.6928   -1.1386    4.4952 H         1 UNK         0.0000 
     83 H83         0.3377   -1.3659    5.5476 H         1 UNK         0.0000 
     84 H84         0.4999   -3.0481    3.7304 H         1 UNK         0.0000 
     85 H85        -1.0302   -2.2410    3.6685 H         1 UNK         0.0000 
     86 H86         3.3647   -2.4997    1.8364 H         1 UNK         0.0000 
     87 H87         2.9708   -6.1407    2.5057 H         1 UNK         0.0000 
     88 H88         3.9882   -5.1792    1.4400 H         1 UNK         0.0000 
     89 H89         3.8233   -4.7435    3.1430 H         1 UNK         0.0000 
     90 H90        -0.0320   -4.1912    1.5301 H         1 UNK         0.0000 
     91 H91         0.4598   -5.2862    2.7845 H         1 UNK         0.0000 
     92 H92         1.0377   -7.0209    1.2261 H         1 UNK         0.0000 
     93 H93         1.3915   -5.8592   -0.0313 H         1 UNK         0.0000 
     94 H94        -4.5388   -5.6471   -0.4921 H         1 UNK         0.0000 
     95 H95        -3.9649   -5.6244    1.1361 H         1 UNK         0.0000 
     96 H96        -3.5823   -3.5064   -0.0026 H         1 UNK         0.0000 
     97 H97        -2.1126   -4.1723    0.5966 H         1 UNK         0.0000 
     98 H98        -3.0239   -3.9611   -2.3309 H         1 UNK         0.0000 
     99 H99        -1.7938   -5.0693   -1.8905 H         1 UNK         0.0000 
    100 H100        2.5829   -6.6844   -3.8658 H         1 UNK         0.0000 
    101 H101        3.0095   -5.0044   -3.9879 H         1 UNK         0.0000 
    102 H102        3.1398   -5.8361   -2.4393 H         1 UNK         0.0000 
    103 H103       -0.8336   -5.6644   -3.7409 H         1 UNK         0.0000 
    104 H104       -0.4265   -6.5205   -2.2508 H         1 UNK         0.0000 
    105 H105        0.7086   -7.3580   -4.9328 H         1 UNK         0.0000 
    106 H106       -0.7514   -8.0172   -4.2320 H         1 UNK         0.0000 
    107 H107        0.5149   -8.6645   -2.3769 H         1 UNK         0.0000 
    108 H108        3.4591    5.2119   -2.9543 H         1 UNK         0.0000 
    109 H109       -3.1259    4.0524   -0.5942 H         1 UNK         0.0000 
    110 H110        2.0296   -3.5206   -2.3965 H         1 UNK         0.0000 
@<TRIPOS>BOND
     1    1   15 nc   
     2    1   17 nc   
     3    1   36 nc   
     4    1   38 nc   
     5    1   57 nc   
     6    1   59 nc   
     7    2    3 1    
     8    2  108 1    
     9    3    4 2    
    10    3    5 1    
    11    5    6 1    
    12    5    7 1    
    13    5   11 1    
    14    7    8 1    
    15    7    9 1    
    16    7   10 1    
    17   11   12 1    
    18   11   66 1    
    19   11   67 1    
    20   12   69 1    
    21   12   68 1    
    22   12   13 1    
    23   13   14 1    
    24   13   70 1    
    25   13   71 1    
    26   14   15 1    
    27   14   16 1    
    28   16   17 2    
    29   16   18 2    
    30   18   19 1    
    31   18   72 1    
    32   19   20 1    
    33   19   21 1    
    34   19  109 1    
    35   20   74 1    
    36   20   75 1    
    37   20   73 1    
    38   21   76 1    
    39   21   22 1    
    40   21   77 1    
    41   22   78 1    
    42   22   23 1    
    43   22   79 1    
    44   23   24 1    
    45   24   25 2    
    46   24   26 1    
    47   26   27 1    
    48   26   28 1    
    49   26   32 1    
    50   28   29 1    
    51   28   30 1    
    52   28   31 1    
    53   32   33 1    
    54   32   80 1    
    55   32   81 1    
    56   33   83 1    
    57   33   34 1    
    58   33   82 1    
    59   34   85 1    
    60   34   84 1    
    61   34   35 1    
    62   35   36 1    
    63   35   37 am   BACKBONE|DICT|INTERRES
    64   37   38 2    
    65   37   39 1    
    66   39   40 2    
    67   39   86 1    
    68   40   41 1    
    69   40   42 1    
    70   41   87 1    
    71   41   89 1    
    72   41   88 1    
    73   42   91 1    
    74   42   43 1    
    75   42   90 1    
    76   43   92 1    
    77   43   44 1    
    78   43   93 1    
    79   44   45 1    
    80   45   46 2    
    81   45   47 1    
    82   47   48 1    
    83   47   53 1    
    84   47   49 1    
    85   49   51 1    
    86   49   50 1    
    87   49   52 1    
    88   53   95 1    
    89   53   54 1    
    90   53   94 1    
    91   54   96 1    
    92   54   97 1    
    93   54   55 1    
    94   55   56 1    
    95   55   98 1    
    96   55   99 1    
    97   56   57 1    
    98   56   58 am   BACKBONE|DICT|INTERRES
    99   58   59 2    
   100   58   60 1    
   101   60   61 2    
   102   60  110 1    
   103   61   62 1    
   104   61   63 1    
   105   62  102 1    
   106   62  100 1    
   107   62  101 1    
   108   63  104 1    
   109   63   64 1    
   110   63  103 1    
   111   64   65 1    
   112   64  105 1    
   113   64  106 1    
   114   65  107 1    
@<TRIPOS>SUBSTRUCTURE
     1 UNK         1 GROUP             0       ****    0 ROOT    
@<TRIPOS>MOLECULE
177_c1
139   146    1
SMALL
USER_CHARGES


@<TRIPOS>ATOM
      1 Fe1         3.7376   -0.9294   -2.2918 Fe        1 UNK         0.0000 
      2 O2          2.0138    0.6073   -3.2739 O.co2     1 UNK         0.0000 
      3 C3          2.5722    1.7464   -3.4545 C.ar      1 UNK         0.0000 
      4 C4          3.9653    1.6683   -3.4984 C.ar      1 UNK         0.0000 
      5 O5          4.4656    0.5282   -3.3080 O.co2     1 UNK         0.0000 
      6 C6          4.7628    2.8115   -3.5191 C.ar      1 UNK         0.0000 
      7 C7          4.1443    4.0529   -3.4745 C.ar      1 UNK         0.0000 
      8 C8          2.7559    4.1441   -3.4699 C.ar      1 UNK         0.0000 
      9 C9          1.9177    3.0031   -3.4604 C.ar      1 UNK         0.0000 
     10 C10         0.3988    3.1722   -3.3599 C.2       1 UNK         0.0000 
     11 O11        -0.4522    2.3238   -3.6237 O.2       1 UNK         0.0000 
     12 N12        -0.0134    4.3959   -2.9470 N.am      1 UNK         0.0000 
     13 C13        -1.4139    4.7291   -2.6361 C.3       1 UNK         0.0000 
     14 H14        -2.0828    4.0810   -3.2008 H         1 UNK         0.0000 
     15 C15        -1.7538    6.2007   -3.0036 C.3       1 UNK         0.0000 
     16 C16        -1.7323    6.5927   -4.4906 C.3       1 UNK         0.0000 
     17 C17        -2.0857    8.0888   -4.5919 C.3       1 UNK         0.0000 
     18 C18        -2.0091    8.6419   -6.0158 C.3       1 UNK         0.0000 
     19 N19        -2.3157   10.0868   -6.0266 N.4       1 UNK         0.0000 
     20 H20        -1.6552   10.5802   -5.4477 H         1 UNK         0.0000 
     21 H21        -2.2599   10.4409   -6.9683 H         1 UNK         0.0000 
     22 H22        -3.2446   10.2417   -5.6690 H         1 UNK         0.0000 
     23 C23        -1.6916    4.4844   -1.1347 C.2       1 UNK         0.0000 
     24 O24        -1.4464    5.3848   -0.3183 O.2       1 UNK         0.0000 
     25 N25        -2.2745    3.3282   -0.8024 N.am      1 UNK         0.0000 
     26 C26        -2.7446    3.0394    0.5648 C.3       1 UNK         0.0000 
     27 H27        -2.0256    3.4757    1.2543 H         1 UNK         0.0000 
     28 C28        -4.1168    3.6969    0.8713 C.2       1 UNK         0.0000 
     29 O29        -5.1650    3.3828    0.3528 O.2       1 UNK         0.0000 
     30 O30        -4.0410    4.6535    1.8332 O.3       1 UNK         0.0000 
     31 C31        -2.7558    1.5396    0.9109 C.3       1 UNK         0.0000 
     32 O32        -1.4293    1.0453    0.7738 O.3       1 UNK         0.0000 
     33 C33        -1.1008   -0.2647    0.9207 C.2       1 UNK         0.0000 
     34 O34        -0.1969   -0.7605    0.2800 O.2       1 UNK         0.0000 
     35 C35        -1.9011   -1.0815    1.9456 C.3       1 UNK         0.0000 
     36 H36        -2.9069   -1.1971    1.5509 H         1 UNK         0.0000 
     37 N37        -2.0537   -0.3606    3.2480 N.am      1 UNK         0.0000 
     38 C38        -1.1804   -0.0594    4.2311 C.2       1 UNK         0.0000 
     39 O39        -1.5641    0.6606    5.1537 O.2       1 UNK         0.0000 
     40 C40         0.2632   -0.6445    4.2854 C.3       1 UNK         0.0000 
     41 H41         0.1457   -1.7202    4.2017 H         1 UNK         0.0000 
     42 C42         1.0287   -0.4099    5.6331 C.3       1 UNK         0.0000 
     43 C43         0.4975   -1.1789    6.8668 C.3       1 UNK         0.0000 
     44 C44         1.2707   -0.8037    8.1479 C.3       1 UNK         0.0000 
     45 C45         0.7056   -1.4855    9.4049 C.3       1 UNK         0.0000 
     46 N46         1.4298   -1.0636   10.6217 N.4       1 UNK         0.0000 
     47 H47         1.0321   -1.5166   11.4299 H         1 UNK         0.0000 
     48 H48         2.4019   -1.3157   10.5508 H         1 UNK         0.0000 
     49 H49         1.3536   -0.0662   10.7371 H         1 UNK         0.0000 
     50 N50         1.1093   -0.1923    3.1735 N.am      1 UNK         0.0000 
     51 C51         2.1689   -0.8760    2.6955 C.2       1 UNK         0.0000 
     52 O52         2.4630   -1.9787    3.1813 O.2       1 UNK         0.0000 
     53 C53         3.0372   -0.0800    1.7454 C.ar      1 UNK         0.0000 
     54 C54         3.6706   -0.6250    0.6064 C.ar      1 UNK         0.0000 
     55 O55         3.3612   -1.7016    0.0026 O.co2     1 UNK         0.0000 
     56 C56         4.6321    0.1133   -0.0611 C.ar      1 UNK         0.0000 
     57 O57         5.1428   -0.4176   -1.0773 O.co2     1 UNK         0.0000 
     58 C58         4.8750    1.4502    0.2429 C.ar      1 UNK         0.0000 
     59 C59         4.1603    2.0500    1.2778 C.ar      1 UNK         0.0000 
     60 C60         3.2769    1.2858    2.0420 C.ar      1 UNK         0.0000 
     61 C61        -1.3485   -2.5222    2.1019 C.3       1 UNK         0.0000 
     62 O62        -1.4386   -3.3845    0.9758 O.3       1 UNK         0.0000 
     63 C63        -2.5032   -4.1823    0.8653 C.2       1 UNK         0.0000 
     64 O64        -3.6636   -3.8407    1.1301 O.2       1 UNK         0.0000 
     65 C65        -2.0703   -5.6201    0.6185 C.3       1 UNK         0.0000 
     66 H66        -1.1714   -5.7507    1.2195 H         1 UNK         0.0000 
     67 C67        -3.0673   -6.6946    1.1504 C.3       1 UNK         0.0000 
     68 O68        -4.2669   -6.9074    0.4198 O.3       1 UNK         0.0000 
     69 N69        -1.6927   -5.7784   -0.7958 N.am      1 UNK         0.0000 
     70 C70        -0.6980   -6.5658   -1.2398 C.2       1 UNK         0.0000 
     71 O71        -0.1417   -7.4103   -0.5205 O.2       1 UNK         0.0000 
     72 C72        -0.3545   -6.4893   -2.7555 C.3       1 UNK         0.0000 
     73 H73         0.7083   -6.7023   -2.8608 H         1 UNK         0.0000 
     74 C74        -1.1893   -7.5570   -3.5372 C.3       1 UNK         0.0000 
     75 C75        -1.0158   -9.0313   -3.0997 C.3       1 UNK         0.0000 
     76 C76        -1.9425   -9.9759   -3.8790 C.3       1 UNK         0.0000 
     77 C77        -1.7830  -11.4289   -3.4136 C.3       1 UNK         0.0000 
     78 N78        -2.6670  -12.3373   -4.1720 N.4       1 UNK         0.0000 
     79 H79        -2.4441  -12.2953   -5.1536 H         1 UNK         0.0000 
     80 H80        -3.6291  -12.0689   -4.0384 H         1 UNK         0.0000 
     81 H81        -2.5438  -13.2845   -3.8472 H         1 UNK         0.0000 
     82 N82        -0.6867   -5.1847   -3.3546 N.am      1 UNK         0.0000 
     83 C83         0.0544   -4.1332   -3.7454 C.2       1 UNK         0.0000 
     84 O84        -0.6040   -3.1771   -4.1522 O.2       1 UNK         0.0000 
     85 C85         1.5633   -4.2333   -3.8696 C.ar      1 UNK         0.0000 
     86 C86         2.4358   -3.2548   -3.3544 C.ar      1 UNK         0.0000 
     87 O87         2.1326   -2.2914   -2.5751 O.co2     1 UNK         0.0000 
     88 C88         3.7903   -3.2529   -3.7081 C.ar      1 UNK         0.0000 
     89 O89         4.4611   -2.2663   -3.2782 O.co2     1 UNK         0.0000 
     90 C90         4.3331   -4.2685   -4.4729 C.ar      1 UNK         0.0000 
     91 C91         3.5064   -5.2873   -4.9343 C.ar      1 UNK         0.0000 
     92 C92         2.1328   -5.2658   -4.6459 C.ar      1 UNK         0.0000 
     93 H93         5.8401    2.6987   -3.4912 H         1 UNK         0.0000 
     94 H94         4.7453    4.9408   -3.4156 H         1 UNK         0.0000 
     95 H95         2.3307    5.1287   -3.4541 H         1 UNK         0.0000 
     96 H96         0.7036    5.0005   -2.5812 H         1 UNK         0.0000 
     97 H97        -2.7591    6.4149   -2.6187 H         1 UNK         0.0000 
     98 H98        -1.0863    6.8649   -2.4518 H         1 UNK         0.0000 
     99 H99        -0.7431    6.3955   -4.9079 H         1 UNK         0.0000 
    100 H100       -2.4484    5.9841   -5.0530 H         1 UNK         0.0000 
    101 H101       -3.0919    8.2397   -4.1903 H         1 UNK         0.0000 
    102 H102       -1.4053    8.6477   -3.9438 H         1 UNK         0.0000 
    103 H103       -2.7121    8.1143   -6.6628 H         1 UNK         0.0000 
    104 H104       -1.0090    8.4813   -6.4247 H         1 UNK         0.0000 
    105 H105       -2.2947    2.5779   -1.4881 H         1 UNK         0.0000 
    106 H106       -3.4232    0.9736    0.2545 H         1 UNK         0.0000 
    107 H107       -3.1006    1.4201    1.9389 H         1 UNK         0.0000 
    108 H108       -2.9641    0.0492    3.3862 H         1 UNK         0.0000 
    109 H109        1.0573    0.6572    5.8559 H         1 UNK         0.0000 
    110 H110        2.0735   -0.6990    5.5018 H         1 UNK         0.0000 
    111 H111        0.5798   -2.2532    6.6808 H         1 UNK         0.0000 
    112 H112       -0.5642   -0.9604    6.9963 H         1 UNK         0.0000 
    113 H113        2.3234   -1.0746    8.0140 H         1 UNK         0.0000 
    114 H114        1.2398    0.2829    8.2685 H         1 UNK         0.0000 
    115 H115        0.7683   -2.5715    9.3028 H         1 UNK         0.0000 
    116 H116       -0.3522   -1.2340    9.5169 H         1 UNK         0.0000 
    117 H117        0.8597    0.6439    2.6663 H         1 UNK         0.0000 
    118 H118        5.5625    2.0149   -0.3720 H         1 UNK         0.0000 
    119 H119        4.3026    3.0892    1.4957 H         1 UNK         0.0000 
    120 H120        2.8058    1.7566    2.8813 H         1 UNK         0.0000 
    121 H121       -0.3026   -2.5134    2.3862 H         1 UNK         0.0000 
    122 H122       -1.8647   -2.9928    2.9419 H         1 UNK         0.0000 
    123 H123       -2.5294   -7.6372    1.2456 H         1 UNK         0.0000 
    124 H124       -3.4007   -6.4283    2.1537 H         1 UNK         0.0000 
    125 H125       -4.9755   -6.5244    0.9427 H         1 UNK         0.0000 
    126 H126       -2.1750   -5.1959   -1.4629 H         1 UNK         0.0000 
    127 H127       -2.2508   -7.2893   -3.4589 H         1 UNK         0.0000 
    128 H128       -0.9278   -7.4809   -4.5945 H         1 UNK         0.0000 
    129 H129        0.0308   -9.3191   -3.2340 H         1 UNK         0.0000 
    130 H130       -1.2271   -9.1373   -2.0317 H         1 UNK         0.0000 
    131 H131       -2.9759   -9.6494   -3.7412 H         1 UNK         0.0000 
    132 H132       -1.7201   -9.8840   -4.9435 H         1 UNK         0.0000 
    133 H133       -0.7460  -11.7469   -3.5345 H         1 UNK         0.0000 
    134 H134       -2.0210  -11.5067   -2.3507 H         1 UNK         0.0000 
    135 H135       -1.6495   -4.9259   -3.4009 H         1 UNK         0.0000 
    136 H136        5.3922   -4.2547   -4.6557 H         1 UNK         0.0000 
    137 H137        3.9200   -6.0810   -5.5213 H         1 UNK         0.0000 
    138 H138        1.4931   -6.0229   -5.0526 H         1 UNK         0.0000 
    139 H139       -4.9418    4.9740    1.9108 H         1 UNK         0.0000 
@<TRIPOS>BOND
     1    1    2 nc   
     2    1    5 nc   
     3    1   55 nc   
     4    1   57 nc   
     5    1   87 nc   
     6    1   89 nc   
     7    2    3 1    
     8    3    9 ar   
     9    3    4 ar   
    10    4    6 ar   
    11    4    5 1    
    12    6   93 1    
    13    6    7 ar   
    14    7   94 1    
    15    7    8 ar   
    16    8   95 1    
    17    8    9 ar   
    18    9   10 1    
    19   10   12 am   BACKBONE|DICT|INTERRES
    20   10   11 2    
    21   12   13 1    
    22   12   96 1    
    23   13   14 1    
    24   13   23 1    
    25   13   15 1    
    26   15   97 1    
    27   15   98 1    
    28   15   16 1    
    29   16   17 1    
    30   16   99 1    
    31   16  100 1    
    32   17  101 1    
    33   17  102 1    
    34   17   18 1    
    35   18   19 1    
    36   18  103 1    
    37   18  104 1    
    38   19   22 1    
    39   19   20 1    
    40   19   21 1    
    41   23   25 am   BACKBONE|DICT|INTERRES
    42   23   24 2    
    43   25   26 1    
    44   25  105 1    
    45   26   31 1    
    46   26   28 1    
    47   26   27 1    
    48   28   30 1    
    49   28   29 2    
    50   30  139 1    
    51   31  107 1    
    52   31   32 1    
    53   31  106 1    
    54   32   33 1    
    55   33   35 1    
    56   33   34 2    
    57   35   36 1    
    58   35   61 1    
    59   35   37 1    
    60   37  108 1    
    61   37   38 am   BACKBONE|DICT|INTERRES
    62   38   40 1    
    63   38   39 2    
    64   40   41 1    
    65   40   42 1    
    66   40   50 1    
    67   42  109 1    
    68   42   43 1    
    69   42  110 1    
    70   43  112 1    
    71   43   44 1    
    72   43  111 1    
    73   44  114 1    
    74   44   45 1    
    75   44  113 1    
    76   45  116 1    
    77   45   46 1    
    78   45  115 1    
    79   46   49 1    
    80   46   47 1    
    81   46   48 1    
    82   50  117 1    
    83   50   51 am   BACKBONE|DICT|INTERRES
    84   51   52 2    
    85   51   53 1    
    86   53   60 ar   
    87   53   54 ar   
    88   54   55 1    
    89   54   56 ar   
    90   56   58 ar   
    91   56   57 1    
    92   58   59 ar   
    93   58  118 1    
    94   59  119 1    
    95   59   60 ar   
    96   60  120 1    
    97   61  121 1    
    98   61  122 1    
    99   61   62 1    
   100   62   63 1    
   101   63   65 1    
   102   63   64 2    
   103   65   66 1    
   104   65   67 1    
   105   65   69 1    
   106   67  123 1    
   107   67  124 1    
   108   67   68 1    
   109   68  125 1    
   110   69   70 am   BACKBONE|DICT|INTERRES
   111   69  126 1    
   112   70   71 2    
   113   70   72 1    
   114   72   73 1    
   115   72   74 1    
   116   72   82 1    
   117   74  127 1    
   118   74   75 1    
   119   74  128 1    
   120   75  130 1    
   121   75   76 1    
   122   75  129 1    
   123   76  131 1    
   124   76   77 1    
   125   76  132 1    
   126   77  134 1    
   127   77   78 1    
   128   77  133 1    
   129   78   80 1    
   130   78   81 1    
   131   78   79 1    
   132   82  135 1    
   133   82   83 am   BACKBONE|DICT|INTERRES
   134   83   84 2    
   135   83   85 1    
   136   85   86 ar   
   137   85   92 ar   
   138   86   87 1    
   139   86   88 ar   
   140   88   89 1    
   141   88   90 ar   
   142   90   91 ar   
   143   90  136 1    
   144   91   92 ar   
   145   91  137 1    
   146   92  138 1    
@<TRIPOS>SUBSTRUCTURE
     1 UNK         1 GROUP             0       ****    0 ROOT    
@<TRIPOS>MOLECULE
179_A2_c1
84   90    1
SMALL
USER_CHARGES


@<TRIPOS>ATOM
      1 Fe1         0.4631    0.0610    1.0393 Fe        1 UNK         0.0000 
      2 O2         -1.3864    0.5308    1.9575 O.co2     1 UNK         0.0000 
      3 N3         -1.4871    1.7868    2.3986 N.am      1 UNK         0.0000 
      4 C4         -2.8315    2.3635    2.6815 C.3       1 UNK         0.0000 
      5 C5         -2.8332    3.9071    2.6414 C.3       1 UNK         0.0000 
      6 C6         -1.5385    4.4905    3.2277 C.3       1 UNK         0.0000 
      7 C7         -0.3018    3.9690    2.4717 C.3       1 UNK         0.0000 
      8 H8          0.5742    4.1042    3.1047 H         1 UNK         0.0000 
      9 C9         -0.2909    2.4263    2.3726 C.2       1 UNK         0.0000 
     10 O10         0.6744    1.7548    2.0023 O.co2     1 UNK         0.0000 
     11 N11         0.0604    4.6289    1.1842 N.am      1 UNK         0.0000 
     12 C12        -0.5388    4.3523   -0.0064 C.2       1 UNK         0.0000 
     13 O13        -1.4726    3.5747   -0.0937 O.2       1 UNK         0.0000 
     14 C14        -0.0877    4.9435   -1.3638 C.3       1 UNK         0.0000 
     15 H15        -0.9548    5.4978   -1.7185 H         1 UNK         0.0000 
     16 N16         0.9627    6.0043   -1.1706 N.4       1 UNK         0.0000 
     17 H17         0.6446    6.6327   -0.4405 H         1 UNK         0.0000 
     18 H18         1.8042    5.5239   -0.8811 H         1 UNK         0.0000 
     19 C19         1.2396    6.7919   -2.4730 C.3       1 UNK         0.0000 
     20 C20         0.2648    3.8394   -2.3967 C.3       1 UNK         0.0000 
     21 C21         1.6468    3.1872   -2.1814 C.3       1 UNK         0.0000 
     22 C22         1.6901    1.7276   -2.7076 C.3       1 UNK         0.0000 
     23 N23         1.1062    0.8055   -1.7265 N.am      1 UNK         0.0000 
     24 O24         1.7096    0.8003   -0.5408 O.co2     1 UNK         0.0000 
     25 C25        -0.0570    0.1134   -1.8341 C.2       1 UNK         0.0000 
     26 O26        -0.4021   -0.3949   -0.7746 O.co2     1 UNK         0.0000 
     27 C27        -0.9371    0.0651   -3.0919 C.3       1 UNK         0.0000 
     28 C28        -2.1001   -0.9761   -3.0103 C.3       1 UNK         0.0000 
     29 N29        -1.6951   -2.3663   -2.7495 N.am      1 UNK         0.0000 
     30 C30        -0.9839   -3.0806   -3.6375 C.2       1 UNK         0.0000 
     31 O31        -0.5886   -2.6039   -4.6974 O.2       1 UNK         0.0000 
     32 C32        -0.6536   -4.5416   -3.2904 C.3       1 UNK         0.0000 
     33 H33        -1.6040   -5.0762   -3.3502 H         1 UNK         0.0000 
     34 C34         0.3338   -5.1704   -4.2887 C.3       1 UNK         0.0000 
     35 N35        -0.0968   -4.6299   -1.9413 N.am      1 UNK         0.0000 
     36 C36        -0.5949   -5.4186   -0.9701 C.2       1 UNK         0.0000 
     37 O37        -1.5365   -6.1881   -1.1662 O.2       1 UNK         0.0000 
     38 C38        -0.0003   -5.2394    0.4525 C.3       1 UNK         0.0000 
     39 H39         1.0420   -5.5332    0.4423 H         1 UNK         0.0000 
     40 C40        -0.6970   -6.1313    1.5122 C.3       1 UNK         0.0000 
     41 O41        -0.1594   -5.9244    2.8154 O.3       1 UNK         0.0000 
     42 N42        -0.2096   -3.8570    0.8360 N.am      1 UNK         0.0000 
     43 C43         0.5487   -2.7932    1.0792 C.2       1 UNK         0.0000 
     44 O44        -0.0760   -1.7703    1.3400 O.co2     1 UNK         0.0000 
     45 C45         2.0612   -2.6580    0.9716 C.ar      1 UNK         0.0000 
     46 C46         2.6747   -1.4816    1.4994 C.ar      1 UNK         0.0000 
     47 O47         2.0284   -0.5455    2.0691 O.co2     1 UNK         0.0000 
     48 C48         4.0379   -1.2733    1.3609 C.ar      1 UNK         0.0000 
     49 C49         4.8418   -2.2024    0.7161 C.ar      1 UNK         0.0000 
     50 C50         4.2643   -3.3450    0.1613 C.ar      1 UNK         0.0000 
     51 C51         2.8849   -3.5635    0.2703 C.ar      1 UNK         0.0000 
     52 H52        -3.5688    1.9635    1.9802 H         1 UNK         0.0000 
     53 H53        -3.1363    2.0140    3.6624 H         1 UNK         0.0000 
     54 H54        -3.7034    4.3058    3.1627 H         1 UNK         0.0000 
     55 H55        -2.9848    4.2537    1.6172 H         1 UNK         0.0000 
     56 H56        -1.5567    5.5803    3.1907 H         1 UNK         0.0000 
     57 H57        -1.4606    4.2232    4.2888 H         1 UNK         0.0000 
     58 H58         0.9646    5.0658    1.2351 H         1 UNK         0.0000 
     59 H59         0.2965    7.2328   -2.8002 H         1 UNK         0.0000 
     60 H60         1.9858    7.5581   -2.2545 H         1 UNK         0.0000 
     61 H61         1.6134    6.0895   -3.2197 H         1 UNK         0.0000 
     62 H62         0.1728    4.2310   -3.4140 H         1 UNK         0.0000 
     63 H63        -0.5012    3.0584   -2.3759 H         1 UNK         0.0000 
     64 H64         1.9171    3.2349   -1.1203 H         1 UNK         0.0000 
     65 H65         2.4243    3.7688   -2.6777 H         1 UNK         0.0000 
     66 H66         1.1928    1.6585   -3.6780 H         1 UNK         0.0000 
     67 H67         2.7302    1.4379   -2.8997 H         1 UNK         0.0000 
     68 H68        -1.3128    1.0511   -3.3531 H         1 UNK         0.0000 
     69 H69        -0.2645   -0.2254   -3.8981 H         1 UNK         0.0000 
     70 H70        -2.7337   -0.7007   -2.1678 H         1 UNK         0.0000 
     71 H71        -2.7800   -0.9157   -3.8681 H         1 UNK         0.0000 
     72 H72        -2.0179   -2.8294   -1.9085 H         1 UNK         0.0000 
     73 H73         1.2805   -4.6238   -4.3203 H         1 UNK         0.0000 
     74 H74         0.5356   -6.2147   -4.0432 H         1 UNK         0.0000 
     75 H75        -0.0952   -5.1415   -5.2917 H         1 UNK         0.0000 
     76 H76         0.6819   -4.0108   -1.7596 H         1 UNK         0.0000 
     77 H77        -0.5606   -7.1799    1.2479 H         1 UNK         0.0000 
     78 H78        -1.7788   -5.9431    1.5529 H         1 UNK         0.0000 
     79 H79         0.7360   -6.2740    2.8569 H         1 UNK         0.0000 
     80 H80        -1.1876   -3.6753    0.9946 H         1 UNK         0.0000 
     81 H81         4.4979   -0.3804    1.7476 H         1 UNK         0.0000 
     82 H82         5.9094   -2.0471    0.6465 H         1 UNK         0.0000 
     83 H83         4.8843   -4.0715   -0.3394 H         1 UNK         0.0000 
     84 H84         2.4971   -4.4222   -0.2638 H         1 UNK         0.0000 
@<TRIPOS>BOND
     1    1    2 nc   
     2    1   10 nc   
     3    1   24 nc   
     4    1   26 nc   
     5    1   44 nc   
     6    1   47 nc   
     7    2    3 1    
     8    3    4 1    
     9    3    9 am   BACKBONE|DICT|INTERRES
    10    4   53 1    
    11    4    5 1    
    12    4   52 1    
    13    5   54 1    
    14    5    6 1    
    15    5   55 1    
    16    6   57 1    
    17    6    7 1    
    18    6   56 1    
    19    7    8 1    
    20    7    9 1    
    21    7   11 1    
    22    9   10 2    
    23   11   58 1    
    24   11   12 am   BACKBONE|DICT|INTERRES
    25   12   13 2    
    26   12   14 1    
    27   14   15 1    
    28   14   16 1    
    29   14   20 1    
    30   16   18 1    
    31   16   17 1    
    32   16   19 1    
    33   19   60 1    
    34   19   59 1    
    35   19   61 1    
    36   20   63 1    
    37   20   21 1    
    38   20   62 1    
    39   21   64 1    
    40   21   22 1    
    41   21   65 1    
    42   22   23 1    
    43   22   66 1    
    44   22   67 1    
    45   23   24 1    
    46   23   25 am   BACKBONE|DICT|INTERRES
    47   25   26 2    
    48   25   27 1    
    49   27   28 1    
    50   27   68 1    
    51   27   69 1    
    52   28   29 1    
    53   28   70 1    
    54   28   71 1    
    55   29   72 1    
    56   29   30 am   BACKBONE|DICT|INTERRES
    57   30   32 1    
    58   30   31 2    
    59   32   33 1    
    60   32   35 1    
    61   32   34 1    
    62   34   74 1    
    63   34   73 1    
    64   34   75 1    
    65   35   76 1    
    66   35   36 am   BACKBONE|DICT|INTERRES
    67   36   38 1    
    68   36   37 2    
    69   38   39 1    
    70   38   42 1    
    71   38   40 1    
    72   40   78 1    
    73   40   41 1    
    74   40   77 1    
    75   41   79 1    
    76   42   80 1    
    77   42   43 am   BACKBONE|DICT|INTERRES
    78   43   45 1    
    79   43   44 2    
    80   45   46 ar   
    81   45   51 ar   
    82   46   47 1    
    83   46   48 ar   
    84   48   81 1    
    85   48   49 ar   
    86   49   50 ar   
    87   49   82 1    
    88   50   51 ar   
    89   50   83 1    
    90   51   84 1    
@<TRIPOS>SUBSTRUCTURE
     1 UNK         1 GROUP             0       ****    0 ROOT    
@<TRIPOS>MOLECULE
179_A3_c1
84   90    1
SMALL
USER_CHARGES


@<TRIPOS>ATOM
      1 Fe1        -0.5075    0.2947   -1.1556 Fe        1 UNK         0.0000 
      2 O2          1.3450    0.8459   -2.0954 O.co2     1 UNK         0.0000 
      3 N3          1.4910    2.1559   -1.9075 N.am      1 UNK         0.0000 
      4 C4          2.8494    2.7107   -1.7653 C.3       1 UNK         0.0000 
      5 C5          2.8855    4.1121   -1.1154 C.3       1 UNK         0.0000 
      6 C6          1.6509    4.9461   -1.4511 C.3       1 UNK         0.0000 
      7 C7          0.3541    4.1993   -1.0836 C.3       1 UNK         0.0000 
      8 H8         -0.4610    4.7155   -1.5835 H         1 UNK         0.0000 
      9 C9          0.3009    2.8057   -1.7486 C.2       1 UNK         0.0000 
     10 O10        -0.7235    2.1397   -1.8475 O.co2     1 UNK         0.0000 
     11 N11        -0.0562    4.1658    0.3528 N.am      1 UNK         0.0000 
     12 C12         0.4519    3.3710    1.3278 C.2       1 UNK         0.0000 
     13 O13         1.2865    2.4970    1.1134 O.2       1 UNK         0.0000 
     14 C14         0.1081    3.6583    2.8155 C.3       1 UNK         0.0000 
     15 H15         0.8357    3.0891    3.3962 H         1 UNK         0.0000 
     16 N16         0.5647    5.0828    3.0929 N.4       1 UNK         0.0000 
     17 H17         0.6419    5.1603    4.0964 H         1 UNK         0.0000 
     18 H18         1.5071    5.1687    2.7201 H         1 UNK         0.0000 
     19 C19        -0.2814    6.2758    2.5954 C.3       1 UNK         0.0000 
     20 C20        -1.3063    3.2676    3.3484 C.3       1 UNK         0.0000 
     21 C21        -1.4479    1.8118    3.8857 C.3       1 UNK         0.0000 
     22 C22        -2.0423    0.7647    2.9105 C.3       1 UNK         0.0000 
     23 N23        -1.2198    0.4779    1.7292 N.am      1 UNK         0.0000 
     24 O24        -1.6900    0.8785    0.5511 O.co2     1 UNK         0.0000 
     25 C25        -0.1036   -0.2772    1.7069 C.2       1 UNK         0.0000 
     26 O26         0.3710   -0.4023    0.5721 O.co2     1 UNK         0.0000 
     27 C27         0.5141   -0.9859    2.9118 C.3       1 UNK         0.0000 
     28 C28         0.8437   -2.4334    2.5100 C.3       1 UNK         0.0000 
     29 N29         1.1662   -3.3503    3.5909 N.am      1 UNK         0.0000 
     30 C30         1.6263   -4.6084    3.4407 C.2       1 UNK         0.0000 
     31 O31         1.7879   -5.3126    4.4316 O.2       1 UNK         0.0000 
     32 C32         1.9316   -5.1924    2.0287 C.3       1 UNK         0.0000 
     33 H33         2.7572   -4.5902    1.6531 H         1 UNK         0.0000 
     34 C34         2.3601   -6.6758    2.0949 C.3       1 UNK         0.0000 
     35 N35         0.7612   -5.0756    1.1505 N.am      1 UNK         0.0000 
     36 C36         0.6303   -4.8750   -0.1756 C.2       1 UNK         0.0000 
     37 O37        -0.5025   -4.6895   -0.6065 O.2       1 UNK         0.0000 
     38 C38         1.7979   -4.8472   -1.2290 C.3       1 UNK         0.0000 
     39 H39         1.5380   -5.6430   -1.9302 H         1 UNK         0.0000 
     40 N40         3.1425   -5.2064   -0.6940 N.3       1 UNK         0.0000 
     41 C41         1.8432   -3.5206   -2.0359 C.3       1 UNK         0.0000 
     42 O42         0.7069   -3.2941   -2.8776 O.3       1 UNK         0.0000 
     43 C43        -0.1095   -2.2460   -2.6310 C.2       1 UNK         0.0000 
     44 O44         0.0050   -1.4732   -1.6590 O.co2     1 UNK         0.0000 
     45 C45        -1.1781   -1.9141   -3.6293 C.ar      1 UNK         0.0000 
     46 C46        -2.0782   -0.8447   -3.3695 C.ar      1 UNK         0.0000 
     47 O47        -2.0365   -0.1763   -2.2836 O.co2     1 UNK         0.0000 
     48 C48        -3.0310   -0.4872   -4.3283 C.ar      1 UNK         0.0000 
     49 C49        -3.0692   -1.1439   -5.5572 C.ar      1 UNK         0.0000 
     50 C50        -2.1872   -2.1921   -5.8167 C.ar      1 UNK         0.0000 
     51 C51        -1.2582   -2.5886   -4.8542 C.ar      1 UNK         0.0000 
     52 H52         3.4463    2.0266   -1.1545 H         1 UNK         0.0000 
     53 H53         3.3224    2.7066   -2.7522 H         1 UNK         0.0000 
     54 H54         3.8056    4.6170   -1.4091 H         1 UNK         0.0000 
     55 H55         2.9490    4.0022   -0.0354 H         1 UNK         0.0000 
     56 H56         1.7012    5.9064   -0.9426 H         1 UNK         0.0000 
     57 H57         1.6577    5.1697   -2.5259 H         1 UNK         0.0000 
     58 H58        -0.9521    4.5966    0.5441 H         1 UNK         0.0000 
     59 H59        -1.3367    6.0765    2.7975 H         1 UNK         0.0000 
     60 H60         0.0764    7.1442    3.1543 H         1 UNK         0.0000 
     61 H61        -0.0871    6.4173    1.5302 H         1 UNK         0.0000 
     62 H62        -1.5265    3.9273    4.1907 H         1 UNK         0.0000 
     63 H63        -2.0913    3.4828    2.6110 H         1 UNK         0.0000 
     64 H64        -2.1348    1.8441    4.7316 H         1 UNK         0.0000 
     65 H65        -0.5170    1.4420    4.3204 H         1 UNK         0.0000 
     66 H66        -3.0119    1.1403    2.5771 H         1 UNK         0.0000 
     67 H67        -2.2758   -0.1586    3.4497 H         1 UNK         0.0000 
     68 H68        -0.1411   -0.9655    3.7813 H         1 UNK         0.0000 
     69 H69         1.4076   -0.4652    3.2533 H         1 UNK         0.0000 
     70 H70         1.5969   -2.4368    1.7170 H         1 UNK         0.0000 
     71 H71        -0.0769   -2.8479    2.0885 H         1 UNK         0.0000 
     72 H72         1.0133   -3.0481    4.5451 H         1 UNK         0.0000 
     73 H73         1.5850   -7.2926    2.5578 H         1 UNK         0.0000 
     74 H74         3.2723   -6.7933    2.6828 H         1 UNK         0.0000 
     75 H75         2.5541   -7.0826    1.1026 H         1 UNK         0.0000 
     76 H76        -0.1129   -5.1425    1.6487 H         1 UNK         0.0000 
     77 H77         3.6466   -4.3944   -0.3697 H         1 UNK         0.0000 
     78 H78         3.7309   -5.6084   -1.4123 H         1 UNK         0.0000 
     79 H79         2.0671   -2.6907   -1.3527 H         1 UNK         0.0000 
     80 H80         2.6989   -3.5565   -2.7101 H         1 UNK         0.0000 
     81 H81        -3.7321    0.3128   -4.1213 H         1 UNK         0.0000 
     82 H82        -3.7815   -0.8313   -6.3091 H         1 UNK         0.0000 
     83 H83        -2.2136   -2.6744   -6.7761 H         1 UNK         0.0000 
     84 H84        -0.5809   -3.3969   -5.0998 H         1 UNK         0.0000 
@<TRIPOS>BOND
     1    1    2 nc   
     2    1   10 nc   
     3    1   24 nc   
     4    1   26 nc   
     5    1   44 nc   
     6    1   47 nc   
     7    2    3 1    
     8    3    9 am   BACKBONE|DICT|INTERRES
     9    3    4 1    
    10    4   52 1    
    11    4    5 1    
    12    4   53 1    
    13    5   55 1    
    14    5    6 1    
    15    5   54 1    
    16    6    7 1    
    17    6   56 1    
    18    6   57 1    
    19    7    8 1    
    20    7   11 1    
    21    7    9 1    
    22    9   10 2    
    23   11   58 1    
    24   11   12 am   BACKBONE|DICT|INTERRES
    25   12   14 1    
    26   12   13 2    
    27   14   16 1    
    28   14   15 1    
    29   14   20 1    
    30   16   17 1    
    31   16   18 1    
    32   16   19 1    
    33   19   59 1    
    34   19   60 1    
    35   19   61 1    
    36   20   21 1    
    37   20   62 1    
    38   20   63 1    
    39   21   65 1    
    40   21   64 1    
    41   21   22 1    
    42   22   67 1    
    43   22   23 1    
    44   22   66 1    
    45   23   24 1    
    46   23   25 am   BACKBONE|DICT|INTERRES
    47   25   26 2    
    48   25   27 1    
    49   27   69 1    
    50   27   68 1    
    51   27   28 1    
    52   28   29 1    
    53   28   70 1    
    54   28   71 1    
    55   29   72 1    
    56   29   30 am   BACKBONE|DICT|INTERRES
    57   30   31 2    
    58   30   32 1    
    59   32   33 1    
    60   32   34 1    
    61   32   35 1    
    62   34   73 1    
    63   34   74 1    
    64   34   75 1    
    65   35   76 1    
    66   35   36 am   BACKBONE|DICT|INTERRES
    67   36   37 2    
    68   36   38 1    
    69   38   39 1    
    70   38   40 1    
    71   38   41 1    
    72   40   77 1    
    73   40   78 1    
    74   41   79 1    
    75   41   42 1    
    76   41   80 1    
    77   42   43 1    
    78   43   45 1    
    79   43   44 2    
    80   45   46 ar   
    81   45   51 ar   
    82   46   47 1    
    83   46   48 ar   
    84   48   81 1    
    85   48   49 ar   
    86   49   50 ar   
    87   49   82 1    
    88   50   51 ar   
    89   50   83 1    
    90   51   84 1    
@<TRIPOS>SUBSTRUCTURE
     1 UNK         1 GROUP             0       ****    0 ROOT    
@<TRIPOS>MOLECULE
179_B1_c1
46   53    1
SMALL
USER_CHARGES


@<TRIPOS>ATOM
      1 Fe1        -0.0811   -0.1270    0.0396 Fe        1 UNK         0.0000 
      2 O2          0.5450    2.3736    0.9379 O.co2     1 UNK         0.0000 
      3 C3          1.6342    2.8596    1.3236 C.2       1 UNK         0.0000 
      4 O4          1.9251    4.0892    1.2439 O.co2     1 UNK         0.0000 
      5 C5          2.6163    2.0662    2.2373 C.3       1 UNK         0.0000 
      6 H6          2.5397    2.4090    3.2683 H         1 UNK         0.0000 
      7 C7          4.0057    1.8843    1.6422 C.3       1 UNK         0.0000 
      8 N8          3.2772    0.7361    2.1404 N.3       1 UNK         0.0000 
      9 C9          2.9396   -0.4744    1.3305 C.3       1 UNK         0.0000 
     10 O10         2.7977   -0.1330   -0.0298 O.co2     1 UNK         0.0000 
     11 C11         1.8643   -1.4419    2.0062 C.ar      1 UNK         0.0000 
     12 C12         1.0409   -2.4589    1.3922 C.ar      1 UNK         0.0000 
     13 O13         0.9564   -2.7345    0.1476 O.co2     1 UNK         0.0000 
     14 C14         0.1590   -3.2175    2.1665 C.ar      1 UNK         0.0000 
     15 C15         0.0753   -3.0720    3.5453 C.ar      1 UNK         0.0000 
     16 C16         0.8923   -2.1458    4.1732 C.ar      1 UNK         0.0000 
     17 C17         1.7634   -1.3564    3.4195 C.ar      1 UNK         0.0000 
     18 H18         4.8656    2.2186    2.2155 H         1 UNK         0.0000 
     19 H19         4.1239    1.9944    0.5587 H         1 UNK         0.0000 
     20 H20        -0.5183   -3.8938    1.6725 H         1 UNK         0.0000 
     21 H21        -0.6428   -3.6363    4.1078 H         1 UNK         0.0000 
     22 H22         0.8410   -2.0028    5.2403 H         1 UNK         0.0000 
     23 H23         2.3330   -0.6275    3.9745 H         1 UNK         0.0000 
     24 O24        -1.4690    0.0472    2.5394 O.co2     1 UNK         0.0000 
     25 C25        -1.8235    1.1385    3.0206 C.2       1 UNK         0.0000 
     26 O26        -1.9112    1.4178    4.2533 O.co2     1 UNK         0.0000 
     27 C27        -2.5724    2.1347    2.1137 C.3       1 UNK         0.0000 
     28 H28        -2.4860    3.1691    2.4496 H         1 UNK         0.0000 
     29 C29        -3.9198    1.5906    1.6758 C.3       1 UNK         0.0000 
     30 N30        -2.9575    2.0172    0.6945 N.am      1 UNK         0.0000 
     31 C31        -2.3606    1.2127   -0.3129 C.2       1 UNK         0.0000 
     32 O32        -2.6602    0.0146   -0.4315 O.co2     1 UNK         0.0000 
     33 C33        -1.6677    2.0374   -1.4202 C.ar      1 UNK         0.0000 
     34 C34        -1.0452    1.4528   -2.5532 C.ar      1 UNK         0.0000 
     35 O35        -1.0341    0.2024   -2.7497 O.co2     1 UNK         0.0000 
     36 C36        -0.3179    2.2356   -3.4558 C.ar      1 UNK         0.0000 
     37 C37        -0.2405    3.6169   -3.3087 C.ar      1 UNK         0.0000 
     38 C38        -0.9021    4.2295   -2.2525 C.ar      1 UNK         0.0000 
     39 C39        -1.6015    3.4511   -1.3241 C.ar      1 UNK         0.0000 
     40 H40        -4.8021    2.2069    1.8246 H         1 UNK         0.0000 
     41 H41        -4.1089    0.5152    1.7560 H         1 UNK         0.0000 
     42 H42         0.2500    1.7477   -4.2320 H         1 UNK         0.0000 
     43 H43         0.3675    4.2004   -3.9779 H         1 UNK         0.0000 
     44 H44        -0.8413    5.2984   -2.1042 H         1 UNK         0.0000 
     45 H45        -2.0241    3.9538   -0.4703 H         1 UNK         0.0000 
     46 H46         3.8370   -1.0800    1.4452 H         1 UNK         0.0000 
@<TRIPOS>BOND
     1    1    2 nc   
     2    1   10 nc   
     3    1   13 nc   
     4    1   24 nc   
     5    1   32 nc   
     6    1   35 nc   
     7    2    3 1    
     8    3    5 1    
     9    3    4 2    
    10    5    6 1    
    11    5    7 1    
    12    5    8 1    
    13    7   18 1    
    14    7    8 1    
    15    7   19 1    
    16    8    9 1    
    17    9   11 1    
    18    9   10 1    
    19    9   46 1    
    20   11   17 ar   
    21   11   12 ar   
    22   12   14 ar   
    23   12   13 1    
    24   14   15 ar   
    25   14   20 1    
    26   15   21 1    
    27   15   16 ar   
    28   16   22 1    
    29   16   17 ar   
    30   17   23 1    
    31   24   25 1    
    32   25   26 2    
    33   25   27 1    
    34   27   29 1    
    35   27   28 1    
    36   27   30 1    
    37   29   40 1    
    38   29   30 1    
    39   29   41 1    
    40   30   31 am   BACKBONE|DICT|INTERRES
    41   31   33 1    
    42   31   32 2    
    43   33   39 ar   
    44   33   34 ar   
    45   34   35 1    
    46   34   36 ar   
    47   36   37 ar   
    48   36   42 1    
    49   37   38 ar   
    50   37   43 1    
    51   38   44 1    
    52   38   39 ar   
    53   39   45 1    
@<TRIPOS>SUBSTRUCTURE
     1 UNK         1 GROUP             0       ****    0 ROOT    
@<TRIPOS>MOLECULE
179_B2_c1
51   56    1
SMALL
USER_CHARGES


@<TRIPOS>ATOM
      1 Fe1        -0.0022    0.0325   -0.0308 Fe        1 UNK         0.0000 
      2 O2          5.0179   -2.4714   -1.4591 O.3       1 UNK         0.0000 
      3 C3          3.9003   -2.6686   -0.6032 C.3       1 UNK         0.0000 
      4 C4          2.5620   -2.3881   -1.3390 C.3       1 UNK         0.0000 
      5 H5          2.5069   -3.0514   -2.2016 H         1 UNK         0.0000 
      6 C6          1.3792   -2.8741   -0.3732 C.2       1 UNK         0.0000 
      7 O7          0.3905   -2.1030   -0.1274 O.co2     1 UNK         0.0000 
      8 O8          1.5353   -4.0397    0.0440 O.co2     1 UNK         0.0000 
      9 N9          2.5114   -0.9876   -1.8871 N.am      1 UNK         0.0000 
     10 C10         2.3961    0.1026   -1.1259 C.2       1 UNK         0.0000 
     11 O11         2.1792   -0.0403    0.0703 O.co2     1 UNK         0.0000 
     12 C12         2.1029    1.4562   -1.7217 C.ar      1 UNK         0.0000 
     13 C13         1.2211    2.3814   -1.0752 C.ar      1 UNK         0.0000 
     14 O14         0.4952    2.1270   -0.0344 O.co2     1 UNK         0.0000 
     15 C15         1.0099    3.6387   -1.6455 C.ar      1 UNK         0.0000 
     16 C16         1.5305    3.9502   -2.9026 C.ar      1 UNK         0.0000 
     17 C17         2.3186    3.0185   -3.5749 C.ar      1 UNK         0.0000 
     18 C18         2.6226    1.7942   -2.9847 C.ar      1 UNK         0.0000 
     19 H19         4.9451   -3.1128   -2.1691 H         1 UNK         0.0000 
     20 H20         3.9913   -2.0110    0.2692 H         1 UNK         0.0000 
     21 H21         3.9590   -3.6964   -0.2227 H         1 UNK         0.0000 
     22 H22         2.3635   -0.8934   -2.8857 H         1 UNK         0.0000 
     23 H23         0.3625    4.3553   -1.1502 H         1 UNK         0.0000 
     24 H24         1.3086    4.9012   -3.3504 H         1 UNK         0.0000 
     25 H25         2.6990    3.2591   -4.5539 H         1 UNK         0.0000 
     26 H26         3.2752    1.1206   -3.5283 H         1 UNK         0.0000 
     27 O27        -5.0257    1.4588    2.4668 O.3       1 UNK         0.0000 
     28 C28        -3.9091    0.6017    2.6655 C.3       1 UNK         0.0000 
     29 C29        -2.5688    1.3365    2.3891 C.3       1 UNK         0.0000 
     30 H30        -2.5134    2.1962    3.0558 H         1 UNK         0.0000 
     31 C31        -1.3883    0.3672    2.8749 C.2       1 UNK         0.0000 
     32 O32        -0.3959    0.1242    2.1042 O.co2     1 UNK         0.0000 
     33 O33        -1.5462   -0.0518    4.0377 O.co2     1 UNK         0.0000 
     34 N34        -2.5145    1.8885    0.9912 N.am      1 UNK         0.0000 
     35 C35        -2.3995    1.1298   -0.1011 C.2       1 UNK         0.0000 
     36 O36        -2.1834   -0.0666    0.0394 O.co2     1 UNK         0.0000 
     37 C37        -2.1032    1.7274   -1.4526 C.ar      1 UNK         0.0000 
     38 C38        -1.2202    1.0818   -2.3772 C.ar      1 UNK         0.0000 
     39 O39        -0.4969    0.0384   -2.1266 O.co2     1 UNK         0.0000 
     40 C40        -1.0089    1.6534   -3.6346 C.ar      1 UNK         0.0000 
     41 C41        -1.5286    2.9113   -3.9443 C.ar      1 UNK         0.0000 
     42 C42        -2.3170    3.5831   -3.0133 C.ar      1 UNK         0.0000 
     43 C43        -2.6217    2.9917   -1.7894 C.ar      1 UNK         0.0000 
     44 H44        -4.9590    2.1629    3.1156 H         1 UNK         0.0000 
     45 H45        -3.9987   -0.2699    2.0069 H         1 UNK         0.0000 
     46 H46        -3.9708    0.2209    3.6926 H         1 UNK         0.0000 
     47 H47        -2.3633    2.8869    0.9006 H         1 UNK         0.0000 
     48 H48        -0.3618    1.1584   -4.3517 H         1 UNK         0.0000 
     49 H49        -1.3071    3.3587   -4.8957 H         1 UNK         0.0000 
     50 H50        -2.6967    4.5620   -3.2537 H         1 UNK         0.0000 
     51 H51        -3.2753    3.5348   -1.1157 H         1 UNK         0.0000 
@<TRIPOS>BOND
     1    1    7 nc   
     2    1   11 nc   
     3    1   14 nc   
     4    1   32 nc   
     5    1   36 nc   
     6    1   39 nc   
     7    2    3 1    
     8    2   19 1    
     9    3   21 1    
    10    3   20 1    
    11    3    4 1    
    12    4    5 1    
    13    4    6 1    
    14    4    9 1    
    15    6    7 1    
    16    6    8 2    
    17    9   10 am   BACKBONE|DICT|INTERRES
    18    9   22 1    
    19   10   12 1    
    20   10   11 2    
    21   12   13 ar   
    22   12   18 ar   
    23   13   14 1    
    24   13   15 ar   
    25   15   23 1    
    26   15   16 ar   
    27   16   17 ar   
    28   16   24 1    
    29   17   18 ar   
    30   17   25 1    
    31   18   26 1    
    32   27   28 1    
    33   27   44 1    
    34   28   46 1    
    35   28   29 1    
    36   28   45 1    
    37   29   31 1    
    38   29   30 1    
    39   29   34 1    
    40   31   33 2    
    41   31   32 1    
    42   34   35 am   BACKBONE|DICT|INTERRES
    43   34   47 1    
    44   35   37 1    
    45   35   36 2    
    46   37   38 ar   
    47   37   43 ar   
    48   38   39 1    
    49   38   40 ar   
    50   40   41 ar   
    51   40   48 1    
    52   41   42 ar   
    53   41   49 1    
    54   42   43 ar   
    55   42   50 1    
    56   43   51 1    
@<TRIPOS>SUBSTRUCTURE
     1 UNK         1 GROUP             0       ****    0 ROOT    
@<TRIPOS>MOLECULE
179_C1_c1
78   85    1
SMALL
USER_CHARGES


@<TRIPOS>ATOM
      1 Fe1        -0.3485   -0.5537   -0.7176 Fe        1 UNK         0.0000 
      2 O2          1.6753   -0.2698   -1.5921 O.co2     1 UNK         0.0000 
      3 N3          1.7414    0.8367   -2.3231 N.am      1 UNK         0.0000 
      4 C4          2.9929    1.2206   -2.9848 C.3       1 UNK         0.0000 
      5 C5          3.0734    2.7506   -3.1194 C.3       1 UNK         0.0000 
      6 C6          1.7983    3.3268   -3.7339 C.3       1 UNK         0.0000 
      7 C7          0.5143    2.8870   -2.9805 C.3       1 UNK         0.0000 
      8 H8         -0.2376    2.7835   -3.7665 H         1 UNK         0.0000 
      9 C9          0.5381    1.4733   -2.3479 C.2       1 UNK         0.0000 
     10 O10        -0.4712    1.0722   -1.7852 O.co2     1 UNK         0.0000 
     11 N11        -0.1427    3.7652   -1.9888 N.am      1 UNK         0.0000 
     12 C12         0.4595    4.3108   -0.9175 C.2       1 UNK         0.0000 
     13 O13         1.6179    4.7310   -0.9026 O.2       1 UNK         0.0000 
     14 C14        -0.4571    4.7357    0.2558 C.3       1 UNK         0.0000 
     15 H15         0.1810    5.1913    1.0155 H         1 UNK         0.0000 
     16 N16        -1.2315    5.8555   -0.3741 N.4       1 UNK         0.0000 
     17 H17        -0.5851    6.2354   -1.0545 H         1 UNK         0.0000 
     18 H18        -1.9938    5.4081   -0.8680 H         1 UNK         0.0000 
     19 C19        -1.7093    6.9496    0.5924 C.3       1 UNK         0.0000 
     20 C20        -1.3443    3.6576    0.9181 C.3       1 UNK         0.0000 
     21 C21        -0.6735    3.0452    2.1680 C.3       1 UNK         0.0000 
     22 C22        -1.3243    1.7382    2.6692 C.3       1 UNK         0.0000 
     23 N23        -0.9501    0.6167    1.8156 N.am      1 UNK         0.0000 
     24 O24        -1.6801    0.4786    0.7156 O.co2     1 UNK         0.0000 
     25 C25         0.1656   -0.1370    1.9649 C.2       1 UNK         0.0000 
     26 O26         0.4491   -0.9839    1.1227 O.co2     1 UNK         0.0000 
     27 C27         1.1065    0.0800    3.1712 C.3       1 UNK         0.0000 
     28 C28         2.3146   -0.8852    3.2568 C.3       1 UNK         0.0000 
     29 N29         1.9375   -2.2860    3.1289 N.am      1 UNK         0.0000 
     30 C30         2.5038   -3.3427    3.7245 C.2       1 UNK         0.0000 
     31 O31         3.4067   -3.2504    4.5634 O.2       1 UNK         0.0000 
     32 C32         1.9760   -4.7320    3.3175 C.3       1 UNK         0.0000 
     33 N33         1.3673   -4.6699    1.9937 N.am      1 UNK         0.0000 
     34 C34         2.0451   -4.7508    0.8408 C.2       1 UNK         0.0000 
     35 O35         3.2372   -5.0793    0.8189 O.2       1 UNK         0.0000 
     36 C36         1.2735   -4.4616   -0.4787 C.3       1 UNK         0.0000 
     37 H37         1.6636   -5.1566   -1.2267 H         1 UNK         0.0000 
     38 N38        -0.1538   -4.6655   -0.3587 N.2       1 UNK         0.0000 
     39 C39        -0.7068   -3.5345   -0.6468 C.2       1 UNK         0.0000 
     40 O40         0.1590   -2.5022   -0.9110 O.3       1 UNK         0.0000 
     41 C41         1.4642   -3.0245   -0.9359 C.3       1 UNK         0.0000 
     42 C42        -2.1739   -3.2766   -0.7013 C.ar      1 UNK         0.0000 
     43 C43        -2.7282   -2.1513   -1.3537 C.ar      1 UNK         0.0000 
     44 O44        -1.9947   -1.2712   -1.9084 O.co2     1 UNK         0.0000 
     45 C45        -4.1103   -1.9594   -1.3486 C.ar      1 UNK         0.0000 
     46 C46        -4.9651   -2.8898   -0.7476 C.ar      1 UNK         0.0000 
     47 C47        -4.4339   -4.0109   -0.1203 C.ar      1 UNK         0.0000 
     48 C48        -3.0520   -4.1962   -0.0923 C.ar      1 UNK         0.0000 
     49 H49         3.8257    0.8751   -2.3773 H         1 UNK         0.0000 
     50 H50         3.0439    0.7093   -3.9465 H         1 UNK         0.0000 
     51 H51         3.2363    3.1722   -2.1312 H         1 UNK         0.0000 
     52 H52         3.9466    3.0202   -3.7107 H         1 UNK         0.0000 
     53 H53         1.7356    2.9890   -4.7723 H         1 UNK         0.0000 
     54 H54         1.8442    4.4156   -3.7685 H         1 UNK         0.0000 
     55 H55        -1.0452    3.3282   -1.8010 H         1 UNK         0.0000 
     56 H56        -2.4667    6.5058    1.2408 H         1 UNK         0.0000 
     57 H57        -0.8392    7.2970    1.1544 H         1 UNK         0.0000 
     58 H58        -2.1230    7.7438   -0.0302 H         1 UNK         0.0000 
     59 H59        -2.3066    4.0673    1.2299 H         1 UNK         0.0000 
     60 H60        -1.5982    2.8914    0.1787 H         1 UNK         0.0000 
     61 H61        -0.6779    3.7760    2.9754 H         1 UNK         0.0000 
     62 H62         0.3704    2.8193    1.9410 H         1 UNK         0.0000 
     63 H63        -2.4160    1.8306    2.6820 H         1 UNK         0.0000 
     64 H64        -1.0586    1.5492    3.7107 H         1 UNK         0.0000 
     65 H65         1.4523    1.1115    3.1754 H         1 UNK         0.0000 
     66 H66         0.4803   -0.0953    4.0427 H         1 UNK         0.0000 
     67 H67         2.9604   -0.6842    2.4001 H         1 UNK         0.0000 
     68 H68         2.8979   -0.6937    4.1562 H         1 UNK         0.0000 
     69 H69         1.2391   -2.4327    2.3942 H         1 UNK         0.0000 
     70 H70         1.2169   -5.0374    4.0374 H         1 UNK         0.0000 
     71 H71         2.7751   -5.4750    3.3502 H         1 UNK         0.0000 
     72 H72         0.4110   -4.3518    1.8983 H         1 UNK         0.0000 
     73 H73         2.1246   -2.4384   -0.2971 H         1 UNK         0.0000 
     74 H74         1.8627   -2.9638   -1.9495 H         1 UNK         0.0000 
     75 H75        -4.5084   -1.0641   -1.7974 H         1 UNK         0.0000 
     76 H76        -6.0304   -2.7272   -0.7806 H         1 UNK         0.0000 
     77 H77        -5.0777   -4.7445    0.3253 H         1 UNK         0.0000 
     78 H78        -2.6383   -5.0571    0.4205 H         1 UNK         0.0000 
@<TRIPOS>BOND
     1    1    2 nc   
     2    1   10 nc   
     3    1   24 nc   
     4    1   26 nc   
     5    1   40 nc   
     6    1   44 nc   
     7    2    3 1    
     8    3    4 1    
     9    3    9 am   BACKBONE|DICT|INTERRES
    10    4   49 1    
    11    4    5 1    
    12    4   50 1    
    13    5   51 1    
    14    5    6 1    
    15    5   52 1    
    16    6    7 1    
    17    6   53 1    
    18    6   54 1    
    19    7    8 1    
    20    7    9 1    
    21    7   11 1    
    22    9   10 2    
    23   11   12 am   BACKBONE|DICT|INTERRES
    24   11   55 1    
    25   12   13 2    
    26   12   14 1    
    27   14   20 1    
    28   14   15 1    
    29   14   16 1    
    30   16   19 1    
    31   16   17 1    
    32   16   18 1    
    33   19   56 1    
    34   19   57 1    
    35   19   58 1    
    36   20   59 1    
    37   20   21 1    
    38   20   60 1    
    39   21   22 1    
    40   21   61 1    
    41   21   62 1    
    42   22   64 1    
    43   22   23 1    
    44   22   63 1    
    45   23   25 am   BACKBONE|DICT|INTERRES
    46   23   24 1    
    47   25   27 1    
    48   25   26 2    
    49   27   28 1    
    50   27   66 1    
    51   27   65 1    
    52   28   29 1    
    53   28   68 1    
    54   28   67 1    
    55   29   30 am   BACKBONE|DICT|INTERRES
    56   29   69 1    
    57   30   31 2    
    58   30   32 1    
    59   32   71 1    
    60   32   70 1    
    61   32   33 1    
    62   33   34 am   BACKBONE|DICT|INTERRES
    63   33   72 1    
    64   34   35 2    
    65   34   36 1    
    66   36   37 1    
    67   36   38 1    
    68   36   41 1    
    69   38   39 2    
    70   39   40 1    
    71   39   42 1    
    72   40   41 1    
    73   41   73 1    
    74   41   74 1    
    75   42   48 ar   
    76   42   43 ar   
    77   43   44 1    
    78   43   45 ar   
    79   45   46 ar   
    80   45   75 1    
    81   46   47 ar   
    82   46   76 1    
    83   47   48 ar   
    84   47   77 1    
    85   48   78 1    
@<TRIPOS>SUBSTRUCTURE
     1 UNK         1 GROUP             0       ****    0 ROOT    
@<TRIPOS>MOLECULE
179_C1neg_c1
78   85    1
SMALL
USER_CHARGES


@<TRIPOS>ATOM
      1 Fe1         0.0788    0.4883    0.8375 Fe        1 UNK         0.0000 
      2 O2         -2.0102    0.5071    1.6296 O.co2     1 UNK         0.0000 
      3 N3         -2.2245   -0.7312    2.0844 N.am      1 UNK         0.0000 
      4 C4         -3.5345   -1.1802    2.5439 C.3       1 UNK         0.0000 
      5 C5         -3.6899   -2.7036    2.3449 C.3       1 UNK         0.0000 
      6 C6         -2.4272   -3.5044    2.7164 C.3       1 UNK         0.0000 
      7 C7         -1.0943   -2.8706    2.2063 C.3       1 UNK         0.0000 
      8 H8         -0.3363   -3.2507    2.8957 H         1 UNK         0.0000 
      9 C9         -1.0383   -1.3487    2.3373 C.2       1 UNK         0.0000 
     10 O10         0.0442   -0.8037    2.2862 O.co2     1 UNK         0.0000 
     11 N11        -0.5123   -3.1555    0.8795 N.am      1 UNK         0.0000 
     12 C12        -1.1734   -3.4829   -0.2158 C.2       1 UNK         0.0000 
     13 O13        -2.3857   -3.7567   -0.2567 O.2       1 UNK         0.0000 
     14 C14        -0.3677   -3.9192   -1.4677 C.3       1 UNK         0.0000 
     15 H15        -0.8289   -3.3363   -2.2678 H         1 UNK         0.0000 
     16 N16        -0.8935   -5.3313   -1.6346 N.4       1 UNK         0.0000 
     17 H17        -1.8825   -5.1664   -1.4463 H         1 UNK         0.0000 
     18 H18        -0.7538   -5.6287   -2.5847 H         1 UNK         0.0000 
     19 C19        -0.4124   -6.3694   -0.5896 C.3       1 UNK         0.0000 
     20 C20         1.1918   -3.8432   -1.5762 C.3       1 UNK         0.0000 
     21 C21         1.6772   -3.0066   -2.7885 C.3       1 UNK         0.0000 
     22 C22         1.9249   -1.5127   -2.5000 C.3       1 UNK         0.0000 
     23 N23         0.9351   -0.9228   -1.5910 N.am      1 UNK         0.0000 
     24 O24         1.2178   -1.0436   -0.3009 O.co2     1 UNK         0.0000 
     25 C25        -0.0867   -0.1178   -1.9429 C.2       1 UNK         0.0000 
     26 O26        -0.6564    0.5615   -1.0887 O.co2     1 UNK         0.0000 
     27 C27        -0.6151   -0.1674   -3.3888 C.3       1 UNK         0.0000 
     28 C28        -2.0454    0.3573   -3.5929 C.3       1 UNK         0.0000 
     29 N29        -2.1947    1.7641   -3.2563 N.am      1 UNK         0.0000 
     30 C30        -2.9519    2.6495   -3.9195 C.2       1 UNK         0.0000 
     31 O31        -3.5987    2.3542   -4.9255 O.2       1 UNK         0.0000 
     32 C32        -3.0444    4.0772   -3.3644 C.3       1 UNK         0.0000 
     33 N33        -2.6398    4.0588   -1.9685 N.am      1 UNK         0.0000 
     34 C34        -1.6052    4.7462   -1.4661 C.2       1 UNK         0.0000 
     35 O35        -1.0483    5.6204   -2.1344 O.2       1 UNK         0.0000 
     36 C36        -1.2206    4.4655    0.0166 C.3       1 UNK         0.0000 
     37 H37        -1.8177    5.1733    0.5986 H         1 UNK         0.0000 
     38 N38         0.1660    4.7088    0.2951 N.2       1 UNK         0.0000 
     39 C39         0.6743    3.5735    0.6432 C.2       1 UNK         0.0000 
     40 O40        -0.1899    2.4959    0.6084 O.3       1 UNK         0.0000 
     41 C41        -1.4778    3.0338    0.4827 C.3       1 UNK         0.0000 
     42 C42         2.0905    3.4047    1.0789 C.ar      1 UNK         0.0000 
     43 C43         2.5717    2.2178    1.6745 C.ar      1 UNK         0.0000 
     44 O44         1.8289    1.2083    1.8668 O.co2     1 UNK         0.0000 
     45 C45         3.9039    2.1369    2.0799 C.ar      1 UNK         0.0000 
     46 C46         4.7704    3.2235    1.9223 C.ar      1 UNK         0.0000 
     47 C47         4.3078    4.3989    1.3533 C.ar      1 UNK         0.0000 
     48 C48         2.9825    4.4849    0.9289 C.ar      1 UNK         0.0000 
     49 H49        -3.6402   -0.8827    3.5865 H         1 UNK         0.0000 
     50 H50        -4.2943   -0.6553    1.9613 H         1 UNK         0.0000 
     51 H51        -4.5517   -3.0492    2.9108 H         1 UNK         0.0000 
     52 H52        -3.9670   -2.8738    1.3086 H         1 UNK         0.0000 
     53 H53        -2.5129   -4.5314    2.3650 H         1 UNK         0.0000 
     54 H54        -2.3825   -3.5677    3.8060 H         1 UNK         0.0000 
     55 H55         0.2785   -2.4999    0.6903 H         1 UNK         0.0000 
     56 H56         0.6725   -6.4765   -0.6344 H         1 UNK         0.0000 
     57 H57        -0.9251   -7.2951   -0.8413 H         1 UNK         0.0000 
     58 H58        -0.7284   -6.0236    0.3980 H         1 UNK         0.0000 
     59 H59         1.6165   -4.8296   -1.7263 H         1 UNK         0.0000 
     60 H60         1.6599   -3.4835   -0.6545 H         1 UNK         0.0000 
     61 H61         0.9600   -3.0731   -3.6073 H         1 UNK         0.0000 
     62 H62         2.6023   -3.4079   -3.1911 H         1 UNK         0.0000 
     63 H63         1.9639   -0.9707   -3.4509 H         1 UNK         0.0000 
     64 H64         2.9197   -1.3815   -2.0524 H         1 UNK         0.0000 
     65 H65         0.0532    0.4832   -3.9491 H         1 UNK         0.0000 
     66 H66        -0.5118   -1.1505   -3.8374 H         1 UNK         0.0000 
     67 H67        -2.3770    0.1174   -4.6004 H         1 UNK         0.0000 
     68 H68        -2.7087   -0.2117   -2.9371 H         1 UNK         0.0000 
     69 H69        -1.6681    2.0472   -2.4266 H         1 UNK         0.0000 
     70 H70        -2.4140    4.7135   -3.9860 H         1 UNK         0.0000 
     71 H71        -4.0630    4.4535   -3.4300 H         1 UNK         0.0000 
     72 H72        -3.0344    3.3219   -1.3994 H         1 UNK         0.0000 
     73 H73        -2.0914    2.4192   -0.1753 H         1 UNK         0.0000 
     74 H74        -1.9695    3.0448    1.4612 H         1 UNK         0.0000 
     75 H75         4.2443    1.2143    2.5190 H         1 UNK         0.0000 
     76 H76         5.7932    3.1247    2.2509 H         1 UNK         0.0000 
     77 H77         4.9654    5.2374    1.2358 H         1 UNK         0.0000 
     78 H78         2.6395    5.4047    0.4748 H         1 UNK         0.0000 
@<TRIPOS>BOND
     1    1    2 nc   
     2    1   10 nc   
     3    1   24 nc   
     4    1   26 nc   
     5    1   40 nc   
     6    1   44 nc   
     7    2    3 1    
     8    3    4 1    
     9    3    9 am   BACKBONE|DICT|INTERRES
    10    4   49 1    
    11    4    5 1    
    12    4   50 1    
    13    5   51 1    
    14    5    6 1    
    15    5   52 1    
    16    6   54 1    
    17    6    7 1    
    18    6   53 1    
    19    7    8 1    
    20    7    9 1    
    21    7   11 1    
    22    9   10 2    
    23   11   55 1    
    24   11   12 am   BACKBONE|DICT|INTERRES
    25   12   13 2    
    26   12   14 1    
    27   14   15 1    
    28   14   16 1    
    29   14   20 1    
    30   16   17 1    
    31   16   19 1    
    32   16   18 1    
    33   19   58 1    
    34   19   56 1    
    35   19   57 1    
    36   20   60 1    
    37   20   21 1    
    38   20   59 1    
    39   21   22 1    
    40   21   61 1    
    41   21   62 1    
    42   22   23 1    
    43   22   64 1    
    44   22   63 1    
    45   23   24 1    
    46   23   25 am   BACKBONE|DICT|INTERRES
    47   25   27 1    
    48   25   26 2    
    49   27   28 1    
    50   27   65 1    
    51   27   66 1    
    52   28   29 1    
    53   28   68 1    
    54   28   67 1    
    55   29   69 1    
    56   29   30 am   BACKBONE|DICT|INTERRES
    57   30   32 1    
    58   30   31 2    
    59   32   33 1    
    60   32   70 1    
    61   32   71 1    
    62   33   34 am   BACKBONE|DICT|INTERRES
    63   33   72 1    
    64   34   36 1    
    65   34   35 2    
    66   36   38 1    
    67   36   41 1    
    68   36   37 1    
    69   38   39 2    
    70   39   42 1    
    71   39   40 1    
    72   40   41 1    
    73   41   74 1    
    74   41   73 1    
    75   42   43 ar   
    76   42   48 ar   
    77   43   44 1    
    78   43   45 ar   
    79   45   75 1    
    80   45   46 ar   
    81   46   76 1    
    82   46   47 ar   
    83   47   48 ar   
    84   47   77 1    
    85   48   78 1    
@<TRIPOS>SUBSTRUCTURE
     1 UNK         1 GROUP             0       ****    0 ROOT    
@<TRIPOS>MOLECULE
179_D1_c1
82   90    1
SMALL
USER_CHARGES


@<TRIPOS>ATOM
      1 Fe1        -0.4020   -0.7787   -0.6171 Fe        1 UNK         0.0000 
      2 O2          1.3624   -0.1338   -1.5084 O.co2     1 UNK         0.0000 
      3 N3          1.5063    1.1658   -1.8112 N.am      1 UNK         0.0000 
      4 C4          0.3800    1.8307   -1.4357 C.2       1 UNK         0.0000 
      5 O5         -0.5615    1.1391   -1.0580 O.co2     1 UNK         0.0000 
      6 C6          0.4579    3.3685   -1.4433 C.3       1 UNK         0.0000 
      7 H7          1.3251    3.6310   -0.8368 H         1 UNK         0.0000 
      8 C8          0.8005    3.7712   -2.8925 C.3       1 UNK         0.0000 
      9 C9          2.1619    3.1143   -3.2602 C.3       1 UNK         0.0000 
     10 C10         2.1663    1.5658   -3.0691 C.3       1 UNK         0.0000 
     11 N11        -0.7324    3.9198   -0.7222 N.am      1 UNK         0.0000 
     12 C12        -2.0910    4.0924   -1.2599 C.3       1 UNK         0.0000 
     13 H13        -2.1045    4.9771   -1.9064 H         1 UNK         0.0000 
     14 C14        -2.6575    2.9150   -2.0796 C.3       1 UNK         0.0000 
     15 N15        -2.8898    4.5070   -0.0118 N.4       1 UNK         0.0000 
     16 H16        -2.7980    5.5116    0.0392 H         1 UNK         0.0000 
     17 C17        -4.4044    4.2030   -0.0432 C.3       1 UNK         0.0000 
     18 C18        -2.1216    3.9241    1.1902 C.3       1 UNK         0.0000 
     19 H19        -2.2235    4.6786    1.9709 H         1 UNK         0.0000 
     20 C20        -0.6822    3.9529    0.6381 C.2       1 UNK         0.0000 
     21 O21         0.3277    3.9014    1.3335 O.2       1 UNK         0.0000 
     22 C22        -2.5334    2.5106    1.7179 C.3       1 UNK         0.0000 
     23 C23        -1.7228    1.9008    2.9092 C.3       1 UNK         0.0000 
     24 C24        -1.8461    0.3561    3.1473 C.3       1 UNK         0.0000 
     25 N25        -1.1999   -0.4810    2.1178 N.am      1 UNK         0.0000 
     26 O26        -1.7200   -0.3983    0.9161 O.co2     1 UNK         0.0000 
     27 C27        -0.0448   -1.1901    2.2043 C.2       1 UNK         0.0000 
     28 O28         0.3238   -1.6227    1.0963 O.co2     1 UNK         0.0000 
     29 C29         0.7876   -1.3057    3.4887 C.3       1 UNK         0.0000 
     30 C30         2.2288   -1.8389    3.3048 C.3       1 UNK         0.0000 
     31 N31         2.3574   -3.1303    2.6162 N.am      1 UNK         0.0000 
     32 C32         1.9422   -4.3023    3.1187 C.2       1 UNK         0.0000 
     33 O33         1.3898   -4.3841    4.2095 O.2       1 UNK         0.0000 
     34 C34         2.1039   -5.5583    2.2517 C.3       1 UNK         0.0000 
     35 N35         1.5102   -5.3041    0.9441 N.am      1 UNK         0.0000 
     36 C36         2.1787   -4.9336   -0.1523 C.2       1 UNK         0.0000 
     37 O37         3.4032   -4.8479   -0.1711 O.2       1 UNK         0.0000 
     38 C38         1.3625   -4.5057   -1.4081 C.3       1 UNK         0.0000 
     39 H39         1.7415   -5.0765   -2.2548 H         1 UNK         0.0000 
     40 N40        -0.0630   -4.7336   -1.2724 N.2       1 UNK         0.0000 
     41 C41        -0.6443   -3.5998   -1.2914 C.2       1 UNK         0.0000 
     42 O42         0.2171   -2.5034   -1.3257 O.3       1 UNK         0.0000 
     43 C43         1.5188   -3.0098   -1.6406 C.3       1 UNK         0.0000 
     44 C44        -2.1003   -3.3247   -1.2295 C.ar      1 UNK         0.0000 
     45 C45        -2.6574   -2.0673   -1.5412 C.ar      1 UNK         0.0000 
     46 O46        -1.9513   -1.0932   -1.9126 O.co2     1 UNK         0.0000 
     47 C47        -4.0334   -1.8639   -1.4322 C.ar      1 UNK         0.0000 
     48 C48        -4.8740   -2.8980   -1.0212 C.ar      1 UNK         0.0000 
     49 C49        -4.3387   -4.1482   -0.7296 C.ar      1 UNK         0.0000 
     50 C50        -2.9654   -4.3634   -0.8427 C.ar      1 UNK         0.0000 
     51 H51         0.8906    4.8524   -2.9791 H         1 UNK         0.0000 
     52 H52         0.0325    3.4609   -3.6091 H         1 UNK         0.0000 
     53 H53         2.4495    3.3484   -4.2882 H         1 UNK         0.0000 
     54 H54         2.9567    3.5440   -2.6434 H         1 UNK         0.0000 
     55 H55         3.1850    1.1702   -3.0573 H         1 UNK         0.0000 
     56 H56         1.6491    1.0956   -3.9059 H         1 UNK         0.0000 
     57 H57        -2.8304    2.0288   -1.4646 H         1 UNK         0.0000 
     58 H58        -3.6106    3.1691   -2.5462 H         1 UNK         0.0000 
     59 H59        -1.9856    2.6312   -2.8874 H         1 UNK         0.0000 
     60 H60        -4.8229    4.7320   -0.9016 H         1 UNK         0.0000 
     61 H61        -4.8318    4.5755    0.8880 H         1 UNK         0.0000 
     62 H62        -4.5488    3.1268   -0.1354 H         1 UNK         0.0000 
     63 H63        -3.5795    2.5396    2.0262 H         1 UNK         0.0000 
     64 H64        -2.4967    1.8426    0.8618 H         1 UNK         0.0000 
     65 H65        -0.6551    2.1202    2.8456 H         1 UNK         0.0000 
     66 H66        -2.0699    2.4005    3.8191 H         1 UNK         0.0000 
     67 H67        -1.4571    0.1197    4.1421 H         1 UNK         0.0000 
     68 H68        -2.9034    0.0658    3.1860 H         1 UNK         0.0000 
     69 H69         0.8093   -0.3852    4.0637 H         1 UNK         0.0000 
     70 H70         0.2390   -2.0308    4.0826 H         1 UNK         0.0000 
     71 H71         2.7633   -1.8187    4.2581 H         1 UNK         0.0000 
     72 H72         2.7676   -1.1230    2.6784 H         1 UNK         0.0000 
     73 H73         2.8452   -3.1446    1.7330 H         1 UNK         0.0000 
     74 H74         3.1631   -5.8112    2.1809 H         1 UNK         0.0000 
     75 H75         1.5856   -6.3975    2.7102 H         1 UNK         0.0000 
     76 H76         0.5065   -5.3689    0.8626 H         1 UNK         0.0000 
     77 H77         1.7735   -2.7685   -2.6697 H         1 UNK         0.0000 
     78 H78         2.2838   -2.5306   -1.0278 H         1 UNK         0.0000 
     79 H79        -4.4595   -0.8977   -1.6605 H         1 UNK         0.0000 
     80 H80        -5.9367   -2.7230   -0.9356 H         1 UNK         0.0000 
     81 H81        -4.9978   -4.9470   -0.4194 H         1 UNK         0.0000 
     82 H82        -2.5795   -5.3505   -0.6117 H         1 UNK         0.0000 
@<TRIPOS>BOND
     1    1    2 nc   
     2    1    5 nc   
     3    1   26 nc   
     4    1   28 nc   
     5    1   42 nc   
     6    1   46 nc   
     7    2    3 1    
     8    3    4 am   BACKBONE|DICT|INTERRES
     9    3   10 1    
    10    4    5 2    
    11    4    6 1    
    12    6    7 1    
    13    6   11 1    
    14    6    8 1    
    15    8    9 1    
    16    8   51 1    
    17    8   52 1    
    18    9   10 1    
    19    9   54 1    
    20    9   53 1    
    21   10   55 1    
    22   10   56 1    
    23   11   20 am   BACKBONE|DICT|INTERRES
    24   11   12 1    
    25   12   13 1    
    26   12   15 1    
    27   12   14 1    
    28   14   57 1    
    29   14   58 1    
    30   14   59 1    
    31   15   16 1    
    32   15   18 1    
    33   15   17 1    
    34   17   61 1    
    35   17   60 1    
    36   17   62 1    
    37   18   22 1    
    38   18   19 1    
    39   18   20 1    
    40   20   21 2    
    41   22   63 1    
    42   22   23 1    
    43   22   64 1    
    44   23   24 1    
    45   23   66 1    
    46   23   65 1    
    47   24   68 1    
    48   24   67 1    
    49   24   25 1    
    50   25   27 am   BACKBONE|DICT|INTERRES
    51   25   26 1    
    52   27   29 1    
    53   27   28 2    
    54   29   69 1    
    55   29   70 1    
    56   29   30 1    
    57   30   71 1    
    58   30   31 1    
    59   30   72 1    
    60   31   32 am   BACKBONE|DICT|INTERRES
    61   31   73 1    
    62   32   33 2    
    63   32   34 1    
    64   34   75 1    
    65   34   35 1    
    66   34   74 1    
    67   35   76 1    
    68   35   36 am   BACKBONE|DICT|INTERRES
    69   36   37 2    
    70   36   38 1    
    71   38   39 1    
    72   38   40 1    
    73   38   43 1    
    74   40   41 2    
    75   41   44 1    
    76   41   42 1    
    77   42   43 1    
    78   43   78 1    
    79   43   77 1    
    80   44   50 ar   
    81   44   45 ar   
    82   45   47 ar   
    83   45   46 1    
    84   47   48 ar   
    85   47   79 1    
    86   48   80 1    
    87   48   49 ar   
    88   49   81 1    
    89   49   50 ar   
    90   50   82 1    
@<TRIPOS>SUBSTRUCTURE
     1 UNK         1 GROUP             0       ****    0 ROOT    
@<TRIPOS>MOLECULE
179_D1i_c1
82   90    1
SMALL
USER_CHARGES


@<TRIPOS>ATOM
      1 Fe1        -0.4288   -0.6469    0.6297 Fe        1 UNK         0.0000 
      2 O2          1.3985   -0.1071    1.4430 O.co2     1 UNK         0.0000 
      3 N3          1.6565    1.2005    1.3902 N.am      1 UNK         0.0000 
      4 C4          0.5074    1.9204    1.2486 C.2       1 UNK         0.0000 
      5 O5         -0.5335    1.2547    1.2242 O.co2     1 UNK         0.0000 
      6 C6          0.6505    3.3572    0.6709 C.3       1 UNK         0.0000 
      7 H7         -0.0860    3.9220    1.2339 H         1 UNK         0.0000 
      8 C8          2.0191    3.9748    1.0187 C.3       1 UNK         0.0000 
      9 C9          3.1330    3.0611    0.5195 C.3       1 UNK         0.0000 
     10 C10         3.0420    1.6533    1.1461 C.3       1 UNK         0.0000 
     11 N11         0.2162    3.4524   -0.7617 N.am      1 UNK         0.0000 
     12 C12        -0.3026    4.7097   -1.2860 C.3       1 UNK         0.0000 
     13 H13         0.3451    5.5413   -0.9864 H         1 UNK         0.0000 
     14 C14        -1.7366    5.0196   -0.8156 C.3       1 UNK         0.0000 
     15 N15        -0.0329    4.5750   -2.7885 N.4       1 UNK         0.0000 
     16 H16         0.9319    4.8530   -2.9070 H         1 UNK         0.0000 
     17 C17        -0.8692    5.4977   -3.7009 C.3       1 UNK         0.0000 
     18 C18        -0.0903    3.0638   -3.0801 C.3       1 UNK         0.0000 
     19 H19         0.6960    2.9211   -3.8202 H         1 UNK         0.0000 
     20 C20         0.3924    2.4986   -1.7281 C.2       1 UNK         0.0000 
     21 O21         0.9341    1.4031   -1.5892 O.2       1 UNK         0.0000 
     22 C22        -1.4315    2.4542   -3.6033 C.3       1 UNK         0.0000 
     23 C23        -1.4164    1.0008   -4.1653 C.3       1 UNK         0.0000 
     24 C24        -2.0889   -0.1134   -3.3151 C.3       1 UNK         0.0000 
     25 N25        -1.3008   -0.5612   -2.1635 N.am      1 UNK         0.0000 
     26 O26        -1.6861   -0.1339   -0.9672 O.co2     1 UNK         0.0000 
     27 C27        -0.2098   -1.3655   -2.2017 C.2       1 UNK         0.0000 
     28 O28         0.2490   -1.5507   -1.0825 O.co2     1 UNK         0.0000 
     29 C29         0.4603   -1.9042   -3.4617 C.3       1 UNK         0.0000 
     30 C30         2.0093   -2.0040   -3.3883 C.3       1 UNK         0.0000 
     31 N31         2.6107   -2.9980   -2.4741 N.am      1 UNK         0.0000 
     32 C32         2.5601   -4.3278   -2.6926 C.2       1 UNK         0.0000 
     33 O33         1.8539   -4.8010   -3.5757 O.2       1 UNK         0.0000 
     34 C34         3.4632   -5.2685   -1.8678 C.3       1 UNK         0.0000 
     35 N35         3.1839   -5.5804   -0.4487 N.am      1 UNK         0.0000 
     36 C36         2.2752   -5.2654    0.4977 C.2       1 UNK         0.0000 
     37 O37         2.3989   -5.8069    1.5923 O.2       1 UNK         0.0000 
     38 C38         1.1670   -4.2007    0.3023 C.3       1 UNK         0.0000 
     39 H39         1.0434   -4.0028   -0.7492 H         1 UNK         0.0000 
     40 N40        -0.1472   -4.6026    0.7388 N.2       1 UNK         0.0000 
     41 C41        -0.7029   -3.5393    1.1916 C.2       1 UNK         0.0000 
     42 O42         0.1385   -2.4278    1.2554 O.3       1 UNK         0.0000 
     43 C43         1.4659   -2.9601    1.1290 C.3       1 UNK         0.0000 
     44 C44        -2.1032   -3.3588    1.6139 C.ar      1 UNK         0.0000 
     45 C45        -2.6509   -2.0879    1.9067 C.ar      1 UNK         0.0000 
     46 O46        -1.9840   -1.0144    1.8833 O.co2     1 UNK         0.0000 
     47 C47        -4.0037   -1.9875    2.2366 C.ar      1 UNK         0.0000 
     48 C48        -4.8298   -3.1100    2.2429 C.ar      1 UNK         0.0000 
     49 C49        -4.2976   -4.3602    1.9536 C.ar      1 UNK         0.0000 
     50 C50        -2.9431   -4.4873    1.6558 C.ar      1 UNK         0.0000 
     51 H51         2.1222    4.1020    2.1015 H         1 UNK         0.0000 
     52 H52         2.1295    4.9723    0.5983 H         1 UNK         0.0000 
     53 H53         3.0628    2.9720   -0.5643 H         1 UNK         0.0000 
     54 H54         4.1222    3.4898    0.7057 H         1 UNK         0.0000 
     55 H55         3.5829    1.6214    2.0912 H         1 UNK         0.0000 
     56 H56         3.5426    0.9392    0.4905 H         1 UNK         0.0000 
     57 H57        -2.0832    5.9812   -1.2053 H         1 UNK         0.0000 
     58 H58        -1.7825    5.0940    0.2735 H         1 UNK         0.0000 
     59 H59        -2.4547    4.2530   -1.1160 H         1 UNK         0.0000 
     60 H60        -0.6618    6.5217   -3.3886 H         1 UNK         0.0000 
     61 H61        -0.5353    5.3321   -4.7250 H         1 UNK         0.0000 
     62 H62        -1.9277    5.2622   -3.5884 H         1 UNK         0.0000 
     63 H63        -1.7218    3.0749   -4.4507 H         1 UNK         0.0000 
     64 H64        -2.2269    2.5604   -2.8597 H         1 UNK         0.0000 
     65 H65        -1.9704    1.0137   -5.1042 H         1 UNK         0.0000 
     66 H66        -0.4132    0.6936   -4.4567 H         1 UNK         0.0000 
     67 H67        -2.2989   -0.9799   -3.9490 H         1 UNK         0.0000 
     68 H68        -3.0751    0.2278   -2.9781 H         1 UNK         0.0000 
     69 H69         0.0732   -2.9142   -3.5536 H         1 UNK         0.0000 
     70 H70         0.1258   -1.4457   -4.3823 H         1 UNK         0.0000 
     71 H71         2.3791   -1.0144   -3.1048 H         1 UNK         0.0000 
     72 H72         2.4069   -2.1153   -4.3990 H         1 UNK         0.0000 
     73 H73         3.2275   -2.6519   -1.7540 H         1 UNK         0.0000 
     74 H74         3.4694   -6.2288   -2.3846 H         1 UNK         0.0000 
     75 H75         4.4815   -4.8983   -1.9392 H         1 UNK         0.0000 
     76 H76         3.8295   -6.2705   -0.0982 H         1 UNK         0.0000 
     77 H77         1.8541   -3.1774    2.1288 H         1 UNK         0.0000 
     78 H78         2.1753   -2.3081    0.6281 H         1 UNK         0.0000 
     79 H79        -4.4233   -1.0229    2.4818 H         1 UNK         0.0000 
     80 H80        -5.8780   -3.0014    2.4793 H         1 UNK         0.0000 
     81 H81        -4.9421   -5.2244    1.9615 H         1 UNK         0.0000 
     82 H82        -2.5669   -5.4788    1.4163 H         1 UNK         0.0000 
@<TRIPOS>BOND
     1    1    2 nc   
     2    1    5 nc   
     3    1   26 nc   
     4    1   28 nc   
     5    1   42 nc   
     6    1   46 nc   
     7    2    3 1    
     8    3    4 am   BACKBONE|DICT|INTERRES
     9    3   10 1    
    10    4    5 2    
    11    4    6 1    
    12    6    8 1    
    13    6    7 1    
    14    6   11 1    
    15    8   51 1    
    16    8    9 1    
    17    8   52 1    
    18    9   54 1    
    19    9   10 1    
    20    9   53 1    
    21   10   55 1    
    22   10   56 1    
    23   11   12 1    
    24   11   20 am   BACKBONE|DICT|INTERRES
    25   12   13 1    
    26   12   14 1    
    27   12   15 1    
    28   14   58 1    
    29   14   57 1    
    30   14   59 1    
    31   15   16 1    
    32   15   17 1    
    33   15   18 1    
    34   17   62 1    
    35   17   60 1    
    36   17   61 1    
    37   18   19 1    
    38   18   20 1    
    39   18   22 1    
    40   20   21 2    
    41   22   64 1    
    42   22   23 1    
    43   22   63 1    
    44   23   24 1    
    45   23   65 1    
    46   23   66 1    
    47   24   68 1    
    48   24   25 1    
    49   24   67 1    
    50   25   27 am   BACKBONE|DICT|INTERRES
    51   25   26 1    
    52   27   29 1    
    53   27   28 2    
    54   29   30 1    
    55   29   69 1    
    56   29   70 1    
    57   30   71 1    
    58   30   31 1    
    59   30   72 1    
    60   31   73 1    
    61   31   32 am   BACKBONE|DICT|INTERRES
    62   32   34 1    
    63   32   33 2    
    64   34   35 1    
    65   34   74 1    
    66   34   75 1    
    67   35   76 1    
    68   35   36 am   BACKBONE|DICT|INTERRES
    69   36   37 2    
    70   36   38 1    
    71   38   39 1    
    72   38   40 1    
    73   38   43 1    
    74   40   41 2    
    75   41   42 1    
    76   41   44 1    
    77   42   43 1    
    78   43   77 1    
    79   43   78 1    
    80   44   50 ar   
    81   44   45 ar   
    82   45   47 ar   
    83   45   46 1    
    84   47   48 ar   
    85   47   79 1    
    86   48   80 1    
    87   48   49 ar   
    88   49   81 1    
    89   49   50 ar   
    90   50   82 1    
@<TRIPOS>SUBSTRUCTURE
     1 UNK         1 GROUP             0       ****    0 ROOT    
@<TRIPOS>MOLECULE
179_D2_c1
85   93    1
SMALL
USER_CHARGES


@<TRIPOS>ATOM
      1 Fe1         0.4896   -0.8771    0.6452 Fe        1 UNK         0.0000 
      2 O2         -1.4712   -0.3307    1.3685 O.co2     1 UNK         0.0000 
      3 N3         -1.6494    0.9846    1.3702 N.am      1 UNK         0.0000 
      4 C4         -0.4842    1.7062    1.4223 C.2       1 UNK         0.0000 
      5 O5          0.6001    1.1076    1.4340 O.co2     1 UNK         0.0000 
      6 C6         -0.5837    3.2263    1.0577 C.3       1 UNK         0.0000 
      7 H7         -0.0462    3.6633    1.8998 H         1 UNK         0.0000 
      8 C8         -2.0275    3.7785    1.1434 C.3       1 UNK         0.0000 
      9 C9         -3.0183    2.8353    0.4706 C.3       1 UNK         0.0000 
     10 C10        -3.0263    1.4868    1.1999 C.3       1 UNK         0.0000 
     11 N11         0.2379    3.5690   -0.1571 N.am      1 UNK         0.0000 
     12 C12         1.0314    4.8023   -0.2791 C.3       1 UNK         0.0000 
     13 C13         2.0959    4.9031    0.8400 C.3       1 UNK         0.0000 
     14 C14         0.0913    6.0170   -0.2102 C.3       1 UNK         0.0000 
     15 C15         0.4262    2.7158   -1.2012 C.2       1 UNK         0.0000 
     16 O16        -0.2891    1.7649   -1.5095 O.2       1 UNK         0.0000 
     17 C17         1.7846    3.0974   -1.8147 C.3       1 UNK         0.0000 
     18 H18         2.5922    2.8155   -1.1318 H         1 UNK         0.0000 
     19 N19         1.6086    4.6178   -1.6911 N.4       1 UNK         0.0000 
     20 H20         0.8636    4.8703   -2.3265 H         1 UNK         0.0000 
     21 C21         2.8330    5.4900   -2.0510 C.3       1 UNK         0.0000 
     22 C22         2.0532    2.4955   -3.2260 C.3       1 UNK         0.0000 
     23 C23         2.8442    1.1546   -3.2446 C.3       1 UNK         0.0000 
     24 C24         2.0246   -0.1613   -3.3764 C.3       1 UNK         0.0000 
     25 N25         1.2709   -0.6036   -2.1783 N.am      1 UNK         0.0000 
     26 O26         1.8250   -0.2723   -0.9977 O.co2     1 UNK         0.0000 
     27 C27         0.1551   -1.3864   -2.2413 C.2       1 UNK         0.0000 
     28 O28        -0.3110   -1.7545   -1.1500 O.co2     1 UNK         0.0000 
     29 C29        -0.5577   -1.7794   -3.5552 C.3       1 UNK         0.0000 
     30 C30        -0.5272   -3.2748   -3.9512 C.3       1 UNK         0.0000 
     31 N31        -1.1040   -4.2043   -2.9754 N.am      1 UNK         0.0000 
     32 C32        -1.0682   -5.5388   -3.1331 C.2       1 UNK         0.0000 
     33 O33        -0.4850   -6.0670   -4.0753 O.2       1 UNK         0.0000 
     34 C34        -1.7225   -6.4187   -2.0591 C.3       1 UNK         0.0000 
     35 N35        -1.2929   -5.9460   -0.7489 N.am      1 UNK         0.0000 
     36 C36        -2.0428   -5.2716    0.1266 C.2       1 UNK         0.0000 
     37 O37        -3.2302   -5.0359   -0.0866 O.2       1 UNK         0.0000 
     38 C38        -1.3543   -4.7054    1.4013 C.3       1 UNK         0.0000 
     39 H39        -1.8598   -5.1674    2.2566 H         1 UNK         0.0000 
     40 N40         0.0699   -4.9720    1.4672 N.2       1 UNK         0.0000 
     41 C41         0.6821   -3.8542    1.4381 C.2       1 UNK         0.0000 
     42 O42        -0.1292   -2.7452    1.2774 O.3       1 UNK         0.0000 
     43 C43        -1.4778   -3.1917    1.4325 C.3       1 UNK         0.0000 
     44 C44         2.1497   -3.6146    1.4828 C.ar      1 UNK         0.0000 
     45 C45         2.7286   -2.3445    1.7133 C.ar      1 UNK         0.0000 
     46 O46         2.0471   -1.3178    1.9752 O.co2     1 UNK         0.0000 
     47 C47         4.1130   -2.1816    1.6813 C.ar      1 UNK         0.0000 
     48 C48         4.9465   -3.2773    1.4823 C.ar      1 UNK         0.0000 
     49 C49         4.3967   -4.5435    1.2981 C.ar      1 UNK         0.0000 
     50 C50         3.0134   -4.7068    1.2892 C.ar      1 UNK         0.0000 
     51 H51        -2.1142    4.7688    0.6992 H         1 UNK         0.0000 
     52 H52        -2.3009    3.9001    2.1963 H         1 UNK         0.0000 
     53 H53        -2.7426    2.6700   -0.5714 H         1 UNK         0.0000 
     54 H54        -4.0244    3.2578    0.4563 H         1 UNK         0.0000 
     55 H55        -3.6192    0.7712    0.6277 H         1 UNK         0.0000 
     56 H56        -3.4880    1.5652    2.1852 H         1 UNK         0.0000 
     57 H57         2.7771    4.0514    0.8620 H         1 UNK         0.0000 
     58 H58         1.6487    4.9790    1.8324 H         1 UNK         0.0000 
     59 H59         2.7041    5.8020    0.7258 H         1 UNK         0.0000 
     60 H60        -0.7623    5.9109   -0.8834 H         1 UNK         0.0000 
     61 H61         0.6015    6.9425   -0.4765 H         1 UNK         0.0000 
     62 H62        -0.3061    6.1609    0.7969 H         1 UNK         0.0000 
     63 H63         3.6931    5.1669   -1.4628 H         1 UNK         0.0000 
     64 H64         3.0150    5.3748   -3.1205 H         1 UNK         0.0000 
     65 H65         2.5661    6.5261   -1.8324 H         1 UNK         0.0000 
     66 H66         1.1360    2.4052   -3.8092 H         1 UNK         0.0000 
     67 H67         2.6713    3.2055   -3.7745 H         1 UNK         0.0000 
     68 H68         3.5225    1.0766   -2.3945 H         1 UNK         0.0000 
     69 H69         3.5150    1.1825   -4.1033 H         1 UNK         0.0000 
     70 H70         2.7183   -0.9645   -3.6451 H         1 UNK         0.0000 
     71 H71         1.3836   -0.0606   -4.2548 H         1 UNK         0.0000 
     72 H72        -0.4203   -1.1258   -4.4124 H         1 UNK         0.0000 
     73 H73        -1.6022   -1.5765   -3.3195 H         1 UNK         0.0000 
     74 H74         0.5174   -3.5504   -4.1156 H         1 UNK         0.0000 
     75 H75        -0.9684   -3.4106   -4.9435 H         1 UNK         0.0000 
     76 H76        -1.6328   -3.8389   -2.1967 H         1 UNK         0.0000 
     77 H77        -2.8074   -6.3886   -2.1800 H         1 UNK         0.0000 
     78 H78        -1.4128   -7.4582   -2.1872 H         1 UNK         0.0000 
     79 H79        -0.3212   -6.0739   -0.5054 H         1 UNK         0.0000 
     80 H80        -2.1110   -2.7733    0.6477 H         1 UNK         0.0000 
     81 H81        -1.8894   -2.8512    2.3835 H         1 UNK         0.0000 
     82 H82         4.5549   -1.2070    1.8375 H         1 UNK         0.0000 
     83 H83         6.0192   -3.1472    1.5118 H         1 UNK         0.0000 
     84 H84         5.0348   -5.4023    1.1952 H         1 UNK         0.0000 
     85 H85         2.6102   -5.7005    1.1408 H         1 UNK         0.0000 
@<TRIPOS>BOND
     1    1    2 nc   
     2    1    5 nc   
     3    1   26 nc   
     4    1   28 nc   
     5    1   42 nc   
     6    1   46 nc   
     7    2    3 1    
     8    3    4 am   BACKBONE|DICT|INTERRES
     9    3   10 1    
    10    4    5 2    
    11    4    6 1    
    12    6    8 1    
    13    6    7 1    
    14    6   11 1    
    15    8   52 1    
    16    8    9 1    
    17    8   51 1    
    18    9   10 1    
    19    9   53 1    
    20    9   54 1    
    21   10   56 1    
    22   10   55 1    
    23   11   12 1    
    24   11   15 am   BACKBONE|DICT|INTERRES
    25   12   14 1    
    26   12   13 1    
    27   12   19 1    
    28   13   57 1    
    29   13   58 1    
    30   13   59 1    
    31   14   62 1    
    32   14   60 1    
    33   14   61 1    
    34   15   16 2    
    35   15   17 1    
    36   17   19 1    
    37   17   18 1    
    38   17   22 1    
    39   19   20 1    
    40   19   21 1    
    41   21   65 1    
    42   21   63 1    
    43   21   64 1    
    44   22   23 1    
    45   22   66 1    
    46   22   67 1    
    47   23   68 1    
    48   23   24 1    
    49   23   69 1    
    50   24   25 1    
    51   24   70 1    
    52   24   71 1    
    53   25   26 1    
    54   25   27 am   BACKBONE|DICT|INTERRES
    55   27   29 1    
    56   27   28 2    
    57   29   73 1    
    58   29   30 1    
    59   29   72 1    
    60   30   31 1    
    61   30   74 1    
    62   30   75 1    
    63   31   76 1    
    64   31   32 am   BACKBONE|DICT|INTERRES
    65   32   34 1    
    66   32   33 2    
    67   34   35 1    
    68   34   77 1    
    69   34   78 1    
    70   35   79 1    
    71   35   36 am   BACKBONE|DICT|INTERRES
    72   36   38 1    
    73   36   37 2    
    74   38   40 1    
    75   38   39 1    
    76   38   43 1    
    77   40   41 2    
    78   41   44 1    
    79   41   42 1    
    80   42   43 1    
    81   43   81 1    
    82   43   80 1    
    83   44   45 ar   
    84   44   50 ar   
    85   45   47 ar   
    86   45   46 1    
    87   47   82 1    
    88   47   48 ar   
    89   48   83 1    
    90   48   49 ar   
    91   49   50 ar   
    92   49   84 1    
    93   50   85 1    
@<TRIPOS>SUBSTRUCTURE
     1 UNK         1 GROUP             0       ****    0 ROOT    
@<TRIPOS>MOLECULE
179_D2i_c1
85   93    1
SMALL
USER_CHARGES


@<TRIPOS>ATOM
      1 Fe1         0.4078   -0.9903    0.4825 Fe        1 UNK         0.0000 
      2 O2         -1.4548   -0.3491    1.1046 O.co2     1 UNK         0.0000 
      3 N3         -1.6293    0.9032    1.5314 N.am      1 UNK         0.0000 
      4 C4         -0.4079    1.5217    1.5001 C.2       1 UNK         0.0000 
      5 O5          0.5437    0.8755    1.0992 O.co2     1 UNK         0.0000 
      6 C6         -0.3580    3.0353    1.8231 C.3       1 UNK         0.0000 
      7 H7          0.4637    3.0393    2.5422 H         1 UNK         0.0000 
      8 C8         -1.6091    3.5127    2.6273 C.3       1 UNK         0.0000 
      9 C9         -2.9340    2.8133    2.2335 C.3       1 UNK         0.0000 
     10 C10        -2.7994    1.2919    2.3223 C.3       1 UNK         0.0000 
     11 N11         0.1841    3.8188    0.6596 N.am      1 UNK         0.0000 
     12 C12        -0.4563    4.9124   -0.1046 C.3       1 UNK         0.0000 
     13 C13        -1.9801    4.7965   -0.2918 C.3       1 UNK         0.0000 
     14 C14        -0.1528    6.2711    0.5879 C.3       1 UNK         0.0000 
     15 C15         1.5033    3.7017    0.3097 C.2       1 UNK         0.0000 
     16 O16         2.4913    3.5131    1.0230 O.2       1 UNK         0.0000 
     17 C17         1.5895    4.0823   -1.1840 C.3       1 UNK         0.0000 
     18 H18         2.3134    4.9043   -1.2109 H         1 UNK         0.0000 
     19 N19         0.2201    4.7126   -1.4570 N.4       1 UNK         0.0000 
     20 H20        -0.3124    3.9495   -1.8522 H         1 UNK         0.0000 
     21 C21         0.2647    5.9437   -2.3934 C.3       1 UNK         0.0000 
     22 C22         1.9916    2.9359   -2.1494 C.3       1 UNK         0.0000 
     23 C23         0.8856    1.8678   -2.3927 C.3       1 UNK         0.0000 
     24 C24         1.4288    0.5676   -3.0678 C.3       1 UNK         0.0000 
     25 N25         1.1396   -0.6140   -2.2414 N.am      1 UNK         0.0000 
     26 O26         1.7221   -0.5836   -1.0591 O.co2     1 UNK         0.0000 
     27 C27         0.0194   -1.3553   -2.2483 C.2       1 UNK         0.0000 
     28 O28        -0.2696   -1.9302   -1.1987 O.co2     1 UNK         0.0000 
     29 C29        -0.9256   -1.3467   -3.4577 C.3       1 UNK         0.0000 
     30 C30        -2.3468   -1.9149   -3.2179 C.3       1 UNK         0.0000 
     31 N31        -2.3691   -3.2555   -2.6502 N.am      1 UNK         0.0000 
     32 C32        -3.3688   -4.1435   -2.7721 C.2       1 UNK         0.0000 
     33 O33        -4.3587   -3.9534   -3.4855 O.2       1 UNK         0.0000 
     34 C34        -3.2956   -5.4067   -1.9258 C.3       1 UNK         0.0000 
     35 N35        -2.8584   -5.0027   -0.5924 N.am      1 UNK         0.0000 
     36 C36        -1.7189   -5.4188   -0.0196 C.2       1 UNK         0.0000 
     37 O37        -1.0932   -6.3802   -0.4863 O.2       1 UNK         0.0000 
     38 C38        -1.3056   -4.6797    1.2891 C.3       1 UNK         0.0000 
     39 H39        -1.9630   -5.0850    2.0612 H         1 UNK         0.0000 
     40 N40         0.0535   -4.9188    1.6498 N.2       1 UNK         0.0000 
     41 C41         0.6522   -3.7786    1.5710 C.2       1 UNK         0.0000 
     42 O42        -0.1384   -2.6921    1.2335 O.3       1 UNK         0.0000 
     43 C43        -1.4566   -3.1514    1.2416 C.3       1 UNK         0.0000 
     44 C44         2.0944   -3.5992    1.8474 C.ar      1 UNK         0.0000 
     45 C45         2.6890   -2.3359    1.9225 C.ar      1 UNK         0.0000 
     46 O46         1.9885   -1.2801    1.7643 O.co2     1 UNK         0.0000 
     47 C47         4.0567   -2.2083    2.1602 C.ar      1 UNK         0.0000 
     48 C48         4.8532   -3.3438    2.3533 C.ar      1 UNK         0.0000 
     49 C49         4.2756   -4.6117    2.3151 C.ar      1 UNK         0.0000 
     50 C50         2.9045   -4.7377    2.0575 C.ar      1 UNK         0.0000 
     51 H51        -1.7308    4.5920    2.5928 H         1 UNK         0.0000 
     52 H52        -1.4128    3.2872    3.6795 H         1 UNK         0.0000 
     53 H53        -3.2332    3.0402    1.2125 H         1 UNK         0.0000 
     54 H54        -3.7533    3.1618    2.8594 H         1 UNK         0.0000 
     55 H55        -2.6603    0.9423    3.3407 H         1 UNK         0.0000 
     56 H56        -3.6704    0.7794    1.9167 H         1 UNK         0.0000 
     57 H57        -2.2685    3.8018   -0.6334 H         1 UNK         0.0000 
     58 H58        -2.3340    5.4962   -1.0427 H         1 UNK         0.0000 
     59 H59        -2.5514    5.0346    0.6024 H         1 UNK         0.0000 
     60 H60         0.9157    6.4596    0.6870 H         1 UNK         0.0000 
     61 H61        -0.5545    6.2988    1.6015 H         1 UNK         0.0000 
     62 H62        -0.5807    7.1134    0.0477 H         1 UNK         0.0000 
     63 H63         0.6866    5.6322   -3.3473 H         1 UNK         0.0000 
     64 H64        -0.7445    6.3313   -2.5306 H         1 UNK         0.0000 
     65 H65         0.8997    6.7015   -1.9364 H         1 UNK         0.0000 
     66 H66         2.2871    3.3734   -3.1052 H         1 UNK         0.0000 
     67 H67         2.8817    2.4466   -1.7482 H         1 UNK         0.0000 
     68 H68         0.0316    2.2537   -2.9605 H         1 UNK         0.0000 
     69 H69         0.4580    1.5756   -1.4228 H         1 UNK         0.0000 
     70 H70         1.0394    0.4462   -4.0776 H         1 UNK         0.0000 
     71 H71         2.5215    0.6110   -3.1820 H         1 UNK         0.0000 
     72 H72        -0.4001   -1.9725   -4.1777 H         1 UNK         0.0000 
     73 H73        -0.9922   -0.3339   -3.8443 H         1 UNK         0.0000 
     74 H74        -2.9531   -1.8307   -4.1244 H         1 UNK         0.0000 
     75 H75        -2.8289   -1.2801   -2.4702 H         1 UNK         0.0000 
     76 H76        -1.6111   -3.4095   -1.9798 H         1 UNK         0.0000 
     77 H77        -2.6018   -6.0913   -2.4114 H         1 UNK         0.0000 
     78 H78        -4.2640   -5.9051   -1.9077 H         1 UNK         0.0000 
     79 H79        -3.2587   -4.1569   -0.2097 H         1 UNK         0.0000 
     80 H80        -2.0131   -2.7625    0.3975 H         1 UNK         0.0000 
     81 H81        -1.9414   -2.7878    2.1492 H         1 UNK         0.0000 
     82 H82         4.4817   -1.2217    2.1768 H         1 UNK         0.0000 
     83 H83         5.9138   -3.2386    2.5212 H         1 UNK         0.0000 
     84 H84         4.8607   -5.5035    2.4550 H         1 UNK         0.0000 
     85 H85         2.4631   -5.7212    2.0161 H         1 UNK         0.0000 
@<TRIPOS>BOND
     1    1    2 nc   
     2    1    5 nc   
     3    1   26 nc   
     4    1   28 nc   
     5    1   42 nc   
     6    1   46 nc   
     7    2    3 1    
     8    3   10 1    
     9    3    4 am   BACKBONE|DICT|INTERRES
    10    4    5 2    
    11    4    6 1    
    12    6    8 1    
    13    6    7 1    
    14    6   11 1    
    15    8   51 1    
    16    8   52 1    
    17    8    9 1    
    18    9   10 1    
    19    9   54 1    
    20    9   53 1    
    21   10   55 1    
    22   10   56 1    
    23   11   12 1    
    24   11   15 am   BACKBONE|DICT|INTERRES
    25   12   14 1    
    26   12   13 1    
    27   12   19 1    
    28   13   59 1    
    29   13   57 1    
    30   13   58 1    
    31   14   60 1    
    32   14   61 1    
    33   14   62 1    
    34   15   16 2    
    35   15   17 1    
    36   17   18 1    
    37   17   19 1    
    38   17   22 1    
    39   19   20 1    
    40   19   21 1    
    41   21   65 1    
    42   21   63 1    
    43   21   64 1    
    44   22   23 1    
    45   22   67 1    
    46   22   66 1    
    47   23   69 1    
    48   23   24 1    
    49   23   68 1    
    50   24   71 1    
    51   24   25 1    
    52   24   70 1    
    53   25   27 am   BACKBONE|DICT|INTERRES
    54   25   26 1    
    55   27   29 1    
    56   27   28 2    
    57   29   30 1    
    58   29   72 1    
    59   29   73 1    
    60   30   31 1    
    61   30   75 1    
    62   30   74 1    
    63   31   32 am   BACKBONE|DICT|INTERRES
    64   31   76 1    
    65   32   34 1    
    66   32   33 2    
    67   34   35 1    
    68   34   77 1    
    69   34   78 1    
    70   35   79 1    
    71   35   36 am   BACKBONE|DICT|INTERRES
    72   36   38 1    
    73   36   37 2    
    74   38   40 1    
    75   38   39 1    
    76   38   43 1    
    77   40   41 2    
    78   41   44 1    
    79   41   42 1    
    80   42   43 1    
    81   43   81 1    
    82   43   80 1    
    83   44   45 ar   
    84   44   50 ar   
    85   45   47 ar   
    86   45   46 1    
    87   47   82 1    
    88   47   48 ar   
    89   48   83 1    
    90   48   49 ar   
    91   49   84 1    
    92   49   50 ar   
    93   50   85 1    
@<TRIPOS>SUBSTRUCTURE
     1 UNK         1 GROUP             0       ****    0 ROOT    
@<TRIPOS>MOLECULE
180_c1
103   108    1
SMALL
USER_CHARGES


@<TRIPOS>ATOM
      1 Fe1        -0.5902   -4.5346   -0.1617 Fe        1 UNK         0.0000 
      2 O2          0.7058   -6.1968   -4.5709 O.3       1 UNK         0.0000 
      3 C3         -0.3309   -5.6564   -5.2400 C.2       1 UNK         0.0000 
      4 O4         -0.2633   -5.3746   -6.4310 O.2       1 UNK         0.0000 
      5 C5         -1.5814   -5.4813   -4.3910 C.3       1 UNK         0.0000 
      6 C6         -1.3506   -4.8314   -3.0323 C.2       1 UNK         0.0000 
      7 O7         -1.2897   -5.4757   -1.9764 O.co2     1 UNK         0.0000 
      8 N8         -1.2170   -3.5044   -2.8631 N.am      1 UNK         0.0000 
      9 O9         -1.1767   -3.0819   -1.6159 O.co2     1 UNK         0.0000 
     10 C10        -0.8240   -2.5213   -3.9009 C.3       1 UNK         0.0000 
     11 C11         0.2575   -1.4726   -3.5008 C.3       1 UNK         0.0000 
     12 C12        -0.3318   -0.2011   -2.8491 C.3       1 UNK         0.0000 
     13 C13         0.6993    0.9355   -2.6264 C.3       1 UNK         0.0000 
     14 H14         1.2790    1.0051   -3.5454 H         1 UNK         0.0000 
     15 N15         1.7104    0.6022   -1.5971 N.am      1 UNK         0.0000 
     16 C16         1.5490    0.6255   -0.2625 C.2       1 UNK         0.0000 
     17 O17         0.6208    1.1829    0.3032 O.2       1 UNK         0.0000 
     18 C18         0.0319    2.3397   -2.5589 C.2       1 UNK         0.0000 
     19 O19        -1.1630    2.4737   -2.8206 O.2       1 UNK         0.0000 
     20 N20         0.8412    3.3847   -2.3360 N.am      1 UNK         0.0000 
     21 C21         0.3772    4.7772   -2.3674 C.3       1 UNK         0.0000 
     22 C22        -0.2752    5.1608   -1.0361 C.2       1 UNK         0.0000 
     23 O23        -1.2140    4.5166   -0.5758 O.2       1 UNK         0.0000 
     24 N24         0.1878    6.2569   -0.4234 N.am      1 UNK         0.0000 
     25 C25        -0.2822    6.6502    0.9027 C.3       1 UNK         0.0000 
     26 H26        -1.3743    6.6302    0.9088 H         1 UNK         0.0000 
     27 C27         0.1596    8.0938    1.1916 C.3       1 UNK         0.0000 
     28 C28         0.2408    5.6807    1.9851 C.2       1 UNK         0.0000 
     29 O29         1.3991    5.8088    2.3789 O.2       1 UNK         0.0000 
     30 N30        -0.6307    4.7940    2.4809 N.am      1 UNK         0.0000 
     31 C31        -0.4442    4.1473    3.7801 C.3       1 UNK         0.0000 
     32 C32        -0.5620    2.6214    3.7376 C.2       1 UNK         0.0000 
     33 O33        -1.3935    2.0770    4.4589 O.2       1 UNK         0.0000 
     34 N34         0.3302    1.9401    3.0061 N.am      1 UNK         0.0000 
     35 C35         0.7398    0.5726    3.3306 C.3       1 UNK         0.0000 
     36 H36         0.6952    0.5667    4.4191 H         1 UNK         0.0000 
     37 C37        -0.2335   -0.5759    2.9714 C.3       1 UNK         0.0000 
     38 C38         0.0589   -1.8821    3.7683 C.3       1 UNK         0.0000 
     39 C39        -1.0979   -2.9121    3.8150 C.3       1 UNK         0.0000 
     40 N40        -1.3325   -3.7184    2.5957 N.am      1 UNK         0.0000 
     41 O41        -1.0864   -3.1137    1.4421 O.co2     1 UNK         0.0000 
     42 C42        -1.7360   -5.0046    2.5495 C.2       1 UNK         0.0000 
     43 O43        -1.7382   -5.4888    1.4053 O.co2     1 UNK         0.0000 
     44 C44        -2.1249   -5.8309    3.7775 C.3       1 UNK         0.0000 
     45 C45        -1.2004   -7.0123    4.0369 C.2       1 UNK         0.0000 
     46 O46        -1.5587   -8.1794    4.0009 O.2       1 UNK         0.0000 
     47 O47         0.0640   -6.6575    4.3583 O.3       1 UNK         0.0000 
     48 C48         2.2551    0.3897    3.0962 C.2       1 UNK         0.0000 
     49 O49         2.9810    0.4837    4.0815 O.2       1 UNK         0.0000 
     50 N50         2.8842    0.2230    1.9225 N.am      1 UNK         0.0000 
     51 C51         2.5941   -0.1819    0.5460 C.3       1 UNK         0.0000 
     52 H52         3.5495   -0.0256    0.0435 H         1 UNK         0.0000 
     53 C53         2.3095   -1.6903    0.4166 C.3       1 UNK         0.0000 
     54 C54         3.2668   -2.7166    1.1072 C.3       1 UNK         0.0000 
     55 C55         3.3161   -4.1721    0.4914 C.3       1 UNK         0.0000 
     56 N56         2.0329   -4.8463    0.1895 N.am      1 UNK         0.0000 
     57 O57         1.1181   -4.0770   -0.3474 O.co2     1 UNK         0.0000 
     58 C58         1.5511   -6.0775    0.5127 C.2       1 UNK         0.0000 
     59 O59         0.3381   -6.1346    0.2171 O.co2     1 UNK         0.0000 
     60 C60         2.3108   -7.1771    1.2384 C.3       1 UNK         0.0000 
     61 C61         2.3201   -8.5095    0.5116 C.2       1 UNK         0.0000 
     62 O62         3.5589   -8.9989    0.3621 O.3       1 UNK         0.0000 
     63 O63         1.3369   -9.0885    0.0830 O.2       1 UNK         0.0000 
     64 H64        -2.0719   -6.4434   -4.2657 H         1 UNK         0.0000 
     65 H65        -2.2847   -4.8551   -4.9344 H         1 UNK         0.0000 
     66 H66        -1.7250   -2.0035   -4.2270 H         1 UNK         0.0000 
     67 H67        -0.4545   -3.0246   -4.7954 H         1 UNK         0.0000 
     68 H68         0.7964   -1.1735   -4.4065 H         1 UNK         0.0000 
     69 H69         0.9986   -1.9121   -2.8343 H         1 UNK         0.0000 
     70 H70        -0.7984   -0.4496   -1.9015 H         1 UNK         0.0000 
     71 H71        -1.1555    0.1533   -3.4747 H         1 UNK         0.0000 
     72 H72         2.5194    0.1112   -1.9454 H         1 UNK         0.0000 
     73 H73         1.8052    3.2084   -2.1117 H         1 UNK         0.0000 
     74 H74        -0.3644    4.9168   -3.1507 H         1 UNK         0.0000 
     75 H75         1.2059    5.4404   -2.6048 H         1 UNK         0.0000 
     76 H76         0.9712    6.7730   -0.7892 H         1 UNK         0.0000 
     77 H77         1.2450    8.1818    1.2360 H         1 UNK         0.0000 
     78 H78        -0.2371    8.4140    2.1551 H         1 UNK         0.0000 
     79 H79        -0.2104    8.7847    0.4347 H         1 UNK         0.0000 
     80 H80        -1.5231    4.6721    2.0219 H         1 UNK         0.0000 
     81 H81        -1.2021    4.5305    4.4617 H         1 UNK         0.0000 
     82 H82         0.5212    4.3974    4.2250 H         1 UNK         0.0000 
     83 H83         0.8970    2.4009    2.3102 H         1 UNK         0.0000 
     84 H84        -0.2384   -0.7349    1.8958 H         1 UNK         0.0000 
     85 H85        -1.2558   -0.2501    3.1907 H         1 UNK         0.0000 
     86 H86         0.9684   -2.3584    3.4060 H         1 UNK         0.0000 
     87 H87         0.2556   -1.6007    4.8033 H         1 UNK         0.0000 
     88 H88        -2.0291   -2.3941    4.0319 H         1 UNK         0.0000 
     89 H89        -0.9261   -3.5540    4.6779 H         1 UNK         0.0000 
     90 H90        -2.2121   -5.2313    4.6852 H         1 UNK         0.0000 
     91 H91        -3.1268   -6.2105    3.5992 H         1 UNK         0.0000 
     92 H92         3.8720    0.2502    2.0820 H         1 UNK         0.0000 
     93 H93         1.2906   -1.8515    0.7756 H         1 UNK         0.0000 
     94 H94         2.2953   -1.9092   -0.6540 H         1 UNK         0.0000 
     95 H95         3.0150   -2.7841    2.1658 H         1 UNK         0.0000 
     96 H96         4.2842   -2.3217    1.0806 H         1 UNK         0.0000 
     97 H97         3.8350   -4.1094   -0.4663 H         1 UNK         0.0000 
     98 H98         3.9469   -4.8113    1.0967 H         1 UNK         0.0000 
     99 H99         3.3276   -6.8606    1.4532 H         1 UNK         0.0000 
    100 H100        1.8151   -7.3463    2.1947 H         1 UNK         0.0000 
    101 H101        1.3989   -6.2361   -5.2296 H         1 UNK         0.0000 
    102 H102        0.5181   -7.4779    4.5616 H         1 UNK         0.0000 
    103 H103        3.4112   -9.8171   -0.1161 H         1 UNK         0.0000 
@<TRIPOS>BOND
     1    1    7 nc   
     2    1    9 nc   
     3    1   41 nc   
     4    1   43 nc   
     5    1   57 nc   
     6    1   59 nc   
     7    2    3 1    
     8    2  101 1    
     9    3    5 1    
    10    3    4 2    
    11    5   64 1    
    12    5    6 1    
    13    5   65 1    
    14    6    8 am   BACKBONE|DICT|INTERRES
    15    6    7 2    
    16    8    9 1    
    17    8   10 1    
    18   10   11 1    
    19   10   66 1    
    20   10   67 1    
    21   11   69 1    
    22   11   12 1    
    23   11   68 1    
    24   12   13 1    
    25   12   70 1    
    26   12   71 1    
    27   13   14 1    
    28   13   18 1    
    29   13   15 1    
    30   15   16 am   BACKBONE|DICT|INTERRES
    31   15   72 1    
    32   16   17 2    
    33   16   51 1    
    34   18   19 2    
    35   18   20 am   BACKBONE|DICT|INTERRES
    36   20   21 1    
    37   20   73 1    
    38   21   22 1    
    39   21   74 1    
    40   21   75 1    
    41   22   23 2    
    42   22   24 am   BACKBONE|DICT|INTERRES
    43   24   25 1    
    44   24   76 1    
    45   25   26 1    
    46   25   27 1    
    47   25   28 1    
    48   27   77 1    
    49   27   78 1    
    50   27   79 1    
    51   28   29 2    
    52   28   30 am   BACKBONE|DICT|INTERRES
    53   30   31 1    
    54   30   80 1    
    55   31   82 1    
    56   31   81 1    
    57   31   32 1    
    58   32   33 2    
    59   32   34 am   BACKBONE|DICT|INTERRES
    60   34   35 1    
    61   34   83 1    
    62   35   36 1    
    63   35   37 1    
    64   35   48 1    
    65   37   85 1    
    66   37   38 1    
    67   37   84 1    
    68   38   39 1    
    69   38   87 1    
    70   38   86 1    
    71   39   88 1    
    72   39   89 1    
    73   39   40 1    
    74   40   41 1    
    75   40   42 am   BACKBONE|DICT|INTERRES
    76   42   44 1    
    77   42   43 2    
    78   44   45 1    
    79   44   90 1    
    80   44   91 1    
    81   45   47 1    
    82   45   46 2    
    83   47  102 1    
    84   48   49 2    
    85   48   50 am   BACKBONE|DICT|INTERRES
    86   50   92 1    
    87   50   51 1    
    88   51   52 1    
    89   51   53 1    
    90   53   93 1    
    91   53   54 1    
    92   53   94 1    
    93   54   95 1    
    94   54   55 1    
    95   54   96 1    
    96   55   98 1    
    97   55   56 1    
    98   55   97 1    
    99   56   58 am   BACKBONE|DICT|INTERRES
   100   56   57 1    
   101   58   60 1    
   102   58   59 2    
   103   60   99 1    
   104   60  100 1    
   105   60   61 1    
   106   61   62 1    
   107   61   63 2    
   108   62  103 1    
@<TRIPOS>SUBSTRUCTURE
     1 UNK         1 GROUP             0       ****    0 ROOT    
@<TRIPOS>MOLECULE
182_c1
72   78    1
SMALL
USER_CHARGES


@<TRIPOS>ATOM
      1 Fe1         0.0727    2.6512    1.4249 Fe        1 UNK         0.0000 
      2 C2          4.3474    1.5815    1.6711 C.ar      1 UNK         0.0000 
      3 C3          4.4936    2.9011    2.0835 C.ar      1 UNK         0.0000 
      4 C4          3.4163    3.5687    2.6455 C.ar      1 UNK         0.0000 
      5 C5          2.1984    2.9147    2.8088 C.ar      1 UNK         0.0000 
      6 O6          1.2381    3.6225    3.2605 O.co2     1 UNK         0.0000 
      7 C7          2.0413    1.5704    2.3858 C.ar      1 UNK         0.0000 
      8 O8          0.8767    1.0768    2.4040 O.co2     1 UNK         0.0000 
      9 C9          3.1259    0.8789    1.7854 C.ar      1 UNK         0.0000 
     10 C10         3.1327   -0.5737    1.2974 C.2       1 UNK         0.0000 
     11 O11         4.2009   -1.1839    1.2794 O.2       1 UNK         0.0000 
     12 N12         2.1244   -1.3357    0.8239 N.am      1 UNK         0.0000 
     13 C13         0.6932   -1.2727    0.4868 C.3       1 UNK         0.0000 
     14 H14         0.6483   -2.0809   -0.2439 H         1 UNK         0.0000 
     15 C15        -0.2086   -1.7983    1.6528 C.3       1 UNK         0.0000 
     16 C16        -1.5292   -2.4347    1.1735 C.3       1 UNK         0.0000 
     17 C17        -2.2474   -3.2736    2.2447 C.3       1 UNK         0.0000 
     18 N18        -3.3814   -4.0220    1.6593 N.pl3     1 UNK         0.0000 
     19 C19        -3.4624   -5.3382    1.4208 C.cat     1 UNK         0.0000 
     20 N20        -2.4897   -6.1627    1.8183 N.pl3     1 UNK         0.0000 
     21 N21        -4.5241   -5.8307    0.7782 N.pl3     1 UNK         0.0000 
     22 H22        -4.6119   -6.8146    0.5653 H         1 UNK         0.0000 
     23 H23        -5.3098   -5.2613    0.4880 H         1 UNK         0.0000 
     24 C24         0.1851   -0.0755   -0.3517 C.2       1 UNK         0.0000 
     25 O25        -0.7171    0.6576    0.0753 O.co2     1 UNK         0.0000 
     26 N26         0.7841    0.1404   -1.5368 N.am      1 UNK         0.0000 
     27 C27         0.7737    1.4445   -2.2469 C.3       1 UNK         0.0000 
     28 H28        -0.2155    1.8940   -2.1248 H         1 UNK         0.0000 
     29 C29         1.7878    2.3961   -1.4957 C.2       1 UNK         0.0000 
     30 O30         1.4878    2.5482   -0.2802 O.co2     1 UNK         0.0000 
     31 O31         2.8229    2.6836   -2.1397 O.co2     1 UNK         0.0000 
     32 C32         1.0325    1.2894   -3.7751 C.3       1 UNK         0.0000 
     33 C33         0.4827    2.3982   -4.7141 C.3       1 UNK         0.0000 
     34 C34         0.8702    3.8936   -4.4557 C.3       1 UNK         0.0000 
     35 N35        -0.2537    4.7528   -4.0401 N.am      1 UNK         0.0000 
     36 C36        -1.0694    5.3291   -4.9672 C.2       1 UNK         0.0000 
     37 O37        -2.2355    5.6939   -4.8046 O.2       1 UNK         0.0000 
     38 O38        -0.7196    4.4245   -2.7380 O.3       1 UNK         0.0000 
     39 C39        -1.1033    5.4961   -1.9326 C.2       1 UNK         0.0000 
     40 O40        -0.9010    6.6946   -2.1730 O.2       1 UNK         0.0000 
     41 C41        -2.0441    4.9802   -0.8764 C.ar      1 UNK         0.0000 
     42 C42        -1.5863    4.2389    0.2355 C.ar      1 UNK         0.0000 
     43 O43        -0.3681    4.2560    0.5725 O.co2     1 UNK         0.0000 
     44 C44        -2.4848    3.4775    1.0085 C.ar      1 UNK         0.0000 
     45 O45        -2.0615    2.6491    1.8897 O.co2     1 UNK         0.0000 
     46 C46        -3.8567    3.6149    0.7750 C.ar      1 UNK         0.0000 
     47 C47        -4.3281    4.4601   -0.2326 C.ar      1 UNK         0.0000 
     48 C48        -3.4242    5.1226   -1.0691 C.ar      1 UNK         0.0000 
     49 H49         5.2194    1.1006    1.2560 H         1 UNK         0.0000 
     50 H50         5.4417    3.4073    1.9769 H         1 UNK         0.0000 
     51 H51         3.5179    4.6060    2.9264 H         1 UNK         0.0000 
     52 H52         2.5355   -2.2223    0.6088 H         1 UNK         0.0000 
     53 H53         0.3575   -2.5523    2.2000 H         1 UNK         0.0000 
     54 H54        -0.4324   -1.0296    2.3932 H         1 UNK         0.0000 
     55 H55        -1.3877   -3.0335    0.2737 H         1 UNK         0.0000 
     56 H56        -2.1746   -1.5989    0.8904 H         1 UNK         0.0000 
     57 H57        -1.5714   -3.8644    2.8644 H         1 UNK         0.0000 
     58 H58        -2.7279   -2.5726    2.9298 H         1 UNK         0.0000 
     59 H59        -4.1161   -3.3914    1.3571 H         1 UNK         0.0000 
     60 H60        -1.7055   -5.8165    2.3536 H         1 UNK         0.0000 
     61 H61        -2.5041   -7.1575    1.6483 H         1 UNK         0.0000 
     62 H62         1.5890   -0.4177   -1.7560 H         1 UNK         0.0000 
     63 H63         0.6007    0.3463   -4.1007 H         1 UNK         0.0000 
     64 H64         2.1000    1.1663   -3.9444 H         1 UNK         0.0000 
     65 H65        -0.6039    2.3055   -4.7589 H         1 UNK         0.0000 
     66 H66         0.8239    2.1388   -5.7164 H         1 UNK         0.0000 
     67 H67         1.2839    4.2858   -5.3884 H         1 UNK         0.0000 
     68 H68         1.7008    4.0176   -3.7693 H         1 UNK         0.0000 
     69 H69        -0.5513    5.4018   -5.9354 H         1 UNK         0.0000 
     70 H70        -4.5511    3.0646    1.3996 H         1 UNK         0.0000 
     71 H71        -5.3863    4.5723   -0.3859 H         1 UNK         0.0000 
     72 H72        -3.7860    5.7191   -1.8978 H         1 UNK         0.0000 
@<TRIPOS>BOND
     1    1    6 nc   
     2    1    8 nc   
     3    1   25 nc   
     4    1   30 nc   
     5    1   43 nc   
     6    1   45 nc   
     7    2    9 ar   
     8    2    3 ar   
     9    2   49 1    
    10    3    4 ar   
    11    3   50 1    
    12    4    5 ar   
    13    4   51 1    
    14    5    6 1    
    15    5    7 ar   
    16    7    8 1    
    17    7    9 ar   
    18    9   10 1    
    19   10   11 2    
    20   10   12 am   BACKBONE|DICT|INTERRES
    21   12   13 1    
    22   12   52 1    
    23   13   14 1    
    24   13   15 1    
    25   13   24 1    
    26   15   53 1    
    27   15   54 1    
    28   15   16 1    
    29   16   17 1    
    30   16   55 1    
    31   16   56 1    
    32   17   57 1    
    33   17   58 1    
    34   17   18 1    
    35   18   19 ar   
    36   18   59 1    
    37   19   20 ar   
    38   19   21 ar   
    39   20   60 1    
    40   20   61 1    
    41   21   22 1    
    42   21   23 1    
    43   24   25 2    
    44   24   26 am   BACKBONE|DICT|INTERRES
    45   26   27 1    
    46   26   62 1    
    47   27   28 1    
    48   27   29 1    
    49   27   32 1    
    50   29   30 1    
    51   29   31 2    
    52   32   64 1    
    53   32   33 1    
    54   32   63 1    
    55   33   34 1    
    56   33   65 1    
    57   33   66 1    
    58   34   68 1    
    59   34   35 1    
    60   34   67 1    
    61   35   38 1    
    62   35   36 am   BACKBONE|DICT|INTERRES
    63   36   37 2    
    64   36   69 1    
    65   38   39 1    
    66   39   41 1    
    67   39   40 2    
    68   41   42 ar   
    69   41   48 ar   
    70   42   43 1    
    71   42   44 ar   
    72   44   45 1    
    73   44   46 ar   
    74   46   70 1    
    75   46   47 ar   
    76   47   48 ar   
    77   47   71 1    
    78   48   72 1    
@<TRIPOS>SUBSTRUCTURE
     1 UNK         1 GROUP             0       ****    0 ROOT    
@<TRIPOS>MOLECULE
185_C_c1
63   70    1
SMALL
USER_CHARGES


@<TRIPOS>ATOM
      1 Fe1         0.2437    1.8226    1.5853 Fe        1 UNK         0.0000 
      2 C2          2.1975    2.1863   -3.2635 C.ar      1 UNK         0.0000 
      3 C3          2.4798    3.4926   -2.8681 C.ar      1 UNK         0.0000 
      4 C4          2.3471    3.8649   -1.5319 C.ar      1 UNK         0.0000 
      5 C5          1.9876    2.9292   -0.5639 C.ar      1 UNK         0.0000 
      6 O6          1.8530    3.3401    0.6386 O.co2     1 UNK         0.0000 
      7 C7          1.7212    1.5981   -0.9565 C.ar      1 UNK         0.0000 
      8 O8          1.4169    0.7196   -0.0903 O.co2     1 UNK         0.0000 
      9 C9          1.7603    1.2366   -2.3263 C.ar      1 UNK         0.0000 
     10 C10         1.2059   -0.0925   -2.8157 C.2       1 UNK         0.0000 
     11 O11         1.7383   -0.7846   -3.6939 O.2       1 UNK         0.0000 
     12 N12         0.0183   -0.3711   -2.2631 N.am      1 UNK         0.0000 
     13 C13        -0.7810   -1.5802   -2.3356 C.3       1 UNK         0.0000 
     14 C14        -1.1925   -2.0912   -0.9151 C.3       1 UNK         0.0000 
     15 H15        -0.6411   -1.5297   -0.1524 H         1 UNK         0.0000 
     16 N16        -2.6184   -1.9482   -0.5956 N.am      1 UNK         0.0000 
     17 C17        -3.4991   -0.9404   -0.6960 C.2       1 UNK         0.0000 
     18 O18        -4.6877   -1.2778   -0.7741 O.2       1 UNK         0.0000 
     19 C19        -3.1100    0.5341   -0.7631 C.ar      1 UNK         0.0000 
     20 C20        -2.2894    1.1879    0.2026 C.ar      1 UNK         0.0000 
     21 O21        -1.6919    0.5251    1.1197 O.co2     1 UNK         0.0000 
     22 C22        -2.1704    2.6001    0.1685 C.ar      1 UNK         0.0000 
     23 O23        -1.5247    3.2873    1.0309 O.co2     1 UNK         0.0000 
     24 C24        -2.7979    3.3227   -0.8432 C.ar      1 UNK         0.0000 
     25 C25        -3.5593    2.6899   -1.8172 C.ar      1 UNK         0.0000 
     26 C26        -3.7239    1.3100   -1.7683 C.ar      1 UNK         0.0000 
     27 C27        -0.8371   -3.5979   -0.7311 C.3       1 UNK         0.0000 
     28 C28        -0.5061   -3.9996    0.7249 C.3       1 UNK         0.0000 
     29 C29         0.9739   -3.7376    1.0835 C.3       1 UNK         0.0000 
     30 C30         1.2762   -3.6474    2.5928 C.3       1 UNK         0.0000 
     31 N31         0.8179   -2.3984    3.1957 N.am      1 UNK         0.0000 
     32 C32         0.8196   -2.0768    4.4971 C.2       1 UNK         0.0000 
     33 O33         1.0770   -2.9154    5.3771 O.2       1 UNK         0.0000 
     34 C34         0.4636   -0.6250    4.8305 C.ar      1 UNK         0.0000 
     35 C35         0.5780    0.4446    3.9024 C.ar      1 UNK         0.0000 
     36 O36         0.9433    0.2576    2.7042 O.co2     1 UNK         0.0000 
     37 C37         0.2339    1.7604    4.2719 C.ar      1 UNK         0.0000 
     38 O38         0.3009    2.7175    3.4378 O.co2     1 UNK         0.0000 
     39 C39        -0.2415    2.0209    5.5512 C.ar      1 UNK         0.0000 
     40 C40        -0.3604    0.9877    6.4756 C.ar      1 UNK         0.0000 
     41 C41        -0.0060   -0.3179    6.1269 C.ar      1 UNK         0.0000 
     42 H42         2.2586    1.9083   -4.3036 H         1 UNK         0.0000 
     43 H43         2.7639    4.2338   -3.5918 H         1 UNK         0.0000 
     44 H44         2.4865    4.8950   -1.2248 H         1 UNK         0.0000 
     45 H45        -0.0918    0.2116   -1.4312 H         1 UNK         0.0000 
     46 H46        -0.2655   -2.3583   -2.9034 H         1 UNK         0.0000 
     47 H47        -1.6677   -1.3753   -2.9357 H         1 UNK         0.0000 
     48 H48        -3.0486   -2.7432   -0.1722 H         1 UNK         0.0000 
     49 H49        -2.6771    4.3977   -0.8537 H         1 UNK         0.0000 
     50 H50        -4.0407    3.2900   -2.5713 H         1 UNK         0.0000 
     51 H51        -4.3690    0.8419   -2.4961 H         1 UNK         0.0000 
     52 H52        -1.6596   -4.2149   -1.1011 H         1 UNK         0.0000 
     53 H53         0.0111   -3.8734   -1.3590 H         1 UNK         0.0000 
     54 H54        -1.1660   -3.4628    1.4115 H         1 UNK         0.0000 
     55 H55        -0.7245   -5.0592    0.8687 H         1 UNK         0.0000 
     56 H56         1.5752   -4.5406    0.6520 H         1 UNK         0.0000 
     57 H57         1.3269   -2.8267    0.5936 H         1 UNK         0.0000 
     58 H58         2.3501   -3.7590    2.7523 H         1 UNK         0.0000 
     59 H59         0.7949   -4.4819    3.1066 H         1 UNK         0.0000 
     60 H60         0.8017   -1.5260    2.6504 H         1 UNK         0.0000 
     61 H61        -0.5260    3.0362    5.8030 H         1 UNK         0.0000 
     62 H62        -0.7296    1.2100    7.4634 H         1 UNK         0.0000 
     63 H63        -0.0891   -1.1133    6.8532 H         1 UNK         0.0000 
@<TRIPOS>BOND
     1    1    6 nc   
     2    1    8 nc   
     3    1   21 nc   
     4    1   23 nc   
     5    1   36 nc   
     6    1   38 nc   
     7    2    3 ar   
     8    2    9 ar   
     9    2   42 1    
    10    3    4 ar   
    11    3   43 1    
    12    4   44 1    
    13    4    5 ar   
    14    5    6 1    
    15    5    7 ar   
    16    7    8 1    
    17    7    9 ar   
    18    9   10 1    
    19   10   12 am   BACKBONE|DICT|INTERRES
    20   10   11 2    
    21   12   45 1    
    22   12   13 1    
    23   13   14 1    
    24   13   46 1    
    25   13   47 1    
    26   14   27 1    
    27   14   16 1    
    28   14   15 1    
    29   16   48 1    
    30   16   17 am   BACKBONE|DICT|INTERRES
    31   17   18 2    
    32   17   19 1    
    33   19   20 ar   
    34   19   26 ar   
    35   20   21 1    
    36   20   22 ar   
    37   22   23 1    
    38   22   24 ar   
    39   24   25 ar   
    40   24   49 1    
    41   25   26 ar   
    42   25   50 1    
    43   26   51 1    
    44   27   28 1    
    45   27   52 1    
    46   27   53 1    
    47   28   55 1    
    48   28   29 1    
    49   28   54 1    
    50   29   30 1    
    51   29   56 1    
    52   29   57 1    
    53   30   58 1    
    54   30   31 1    
    55   30   59 1    
    56   31   32 am   BACKBONE|DICT|INTERRES
    57   31   60 1    
    58   32   34 1    
    59   32   33 2    
    60   34   41 ar   
    61   34   35 ar   
    62   35   37 ar   
    63   35   36 1    
    64   37   39 ar   
    65   37   38 1    
    66   39   61 1    
    67   39   40 ar   
    68   40   62 1    
    69   40   41 ar   
    70   41   63 1    
@<TRIPOS>SUBSTRUCTURE
     1 UNK         1 GROUP             0       ****    0 ROOT    
@<TRIPOS>MOLECULE
185_E_c1
57   64    1
SMALL
USER_CHARGES


@<TRIPOS>ATOM
      1 Fe1        -0.7608   -1.6086   -0.8063 Fe        1 UNK         0.0000 
      2 C2          3.8546   -2.6383    1.0964 C.ar      1 UNK         0.0000 
      3 C3          3.6222   -3.9495    0.6670 C.ar      1 UNK         0.0000 
      4 C4          2.3515   -4.3248    0.2247 C.ar      1 UNK         0.0000 
      5 C5          1.3060   -3.4042    0.2416 C.ar      1 UNK         0.0000 
      6 O6          0.1779   -3.6777   -0.2820 O.co2     1 UNK         0.0000 
      7 C7          1.5267   -2.1122    0.7314 C.ar      1 UNK         0.0000 
      8 O8          0.5296   -1.3365    0.7095 O.co2     1 UNK         0.0000 
      9 C9          2.8197   -1.6872    1.1130 C.ar      1 UNK         0.0000 
     10 C10         3.1329   -0.2415    1.4741 C.2       1 UNK         0.0000 
     11 O11         4.0510    0.0652    2.2518 O.2       1 UNK         0.0000 
     12 N12         2.3816    0.6773    0.8461 N.am      1 UNK         0.0000 
     13 C13         2.3552    2.1071    1.1487 C.3       1 UNK         0.0000 
     14 C14         1.3223    2.9834    0.3720 C.3       1 UNK         0.0000 
     15 H15         1.2201    3.8642    1.0090 H         1 UNK         0.0000 
     16 N16        -0.0183    2.3978    0.3137 N.am      1 UNK         0.0000 
     17 C17        -1.1195    2.7620    0.9931 C.2       1 UNK         0.0000 
     18 O18        -1.2312    3.8670    1.5508 O.2       1 UNK         0.0000 
     19 C19        -2.1257    1.6387    1.2191 C.ar      1 UNK         0.0000 
     20 C20        -2.2061    0.5061    0.3749 C.ar      1 UNK         0.0000 
     21 O21        -1.6356    0.4460   -0.7537 O.co2     1 UNK         0.0000 
     22 C22        -2.8484   -0.6575    0.8090 C.ar      1 UNK         0.0000 
     23 O23        -2.6279   -1.7440    0.1904 O.co2     1 UNK         0.0000 
     24 C24        -3.6071   -0.6427    1.9764 C.ar      1 UNK         0.0000 
     25 C25        -3.6632    0.5179    2.7509 C.ar      1 UNK         0.0000 
     26 C26        -2.9015    1.6380    2.3960 C.ar      1 UNK         0.0000 
     27 C27         1.8094    3.5654   -0.9806 C.3       1 UNK         0.0000 
     28 C28         2.4371    2.6152   -2.0268 C.3       1 UNK         0.0000 
     29 N29         1.5171    1.6545   -2.6046 N.am      1 UNK         0.0000 
     30 C30         1.2183    1.4543   -3.8905 C.2       1 UNK         0.0000 
     31 O31         1.6371    2.1942   -4.7976 O.2       1 UNK         0.0000 
     32 C32         0.2921    0.2733   -4.1714 C.ar      1 UNK         0.0000 
     33 C33        -0.0030   -0.7247   -3.2087 C.ar      1 UNK         0.0000 
     34 O34         0.4408   -0.7465   -2.0243 O.co2     1 UNK         0.0000 
     35 C35        -0.9580   -1.7107   -3.4652 C.ar      1 UNK         0.0000 
     36 O36        -1.3311   -2.4350   -2.4900 O.co2     1 UNK         0.0000 
     37 C37        -1.5698   -1.7863   -4.7113 C.ar      1 UNK         0.0000 
     38 C38        -1.2614   -0.8432   -5.6908 C.ar      1 UNK         0.0000 
     39 C39        -0.3499    0.1829   -5.4190 C.ar      1 UNK         0.0000 
     40 H40         4.8476   -2.3493    1.3966 H         1 UNK         0.0000 
     41 H41         4.4255   -4.6645    0.6474 H         1 UNK         0.0000 
     42 H42         2.1615   -5.3103   -0.1683 H         1 UNK         0.0000 
     43 H43         1.5378    0.2135    0.4826 H         1 UNK         0.0000 
     44 H44         2.1291    2.1867    2.2138 H         1 UNK         0.0000 
     45 H45         3.3581    2.5097    1.0028 H         1 UNK         0.0000 
     46 H46        -0.2230    1.5709   -0.2647 H         1 UNK         0.0000 
     47 H47        -4.1056   -1.5488    2.2906 H         1 UNK         0.0000 
     48 H48        -4.2426    0.5261    3.6567 H         1 UNK         0.0000 
     49 H49        -2.8836    2.4966    3.0539 H         1 UNK         0.0000 
     50 H50         1.0067    4.1380   -1.4431 H         1 UNK         0.0000 
     51 H51         2.5784    4.2960   -0.7445 H         1 UNK         0.0000 
     52 H52         3.2224    2.0185   -1.5559 H         1 UNK         0.0000 
     53 H53         2.9281    3.2017   -2.8063 H         1 UNK         0.0000 
     54 H54         1.1887    0.8367   -2.0666 H         1 UNK         0.0000 
     55 H55        -2.3233   -2.5368   -4.8750 H         1 UNK         0.0000 
     56 H56        -1.7584   -0.8808   -6.6433 H         1 UNK         0.0000 
     57 H57        -0.1572    0.9272   -6.1767 H         1 UNK         0.0000 
@<TRIPOS>BOND
     1    1    6 nc   
     2    1    8 nc   
     3    1   21 nc   
     4    1   23 nc   
     5    1   34 nc   
     6    1   36 nc   
     7    2   40 1    
     8    2    3 ar   
     9    2    9 ar   
    10    3    4 ar   
    11    3   41 1    
    12    4    5 ar   
    13    4   42 1    
    14    5    7 ar   
    15    5    6 1    
    16    7    9 ar   
    17    7    8 1    
    18    9   10 1    
    19   10   11 2    
    20   10   12 am   BACKBONE|DICT|INTERRES
    21   12   13 1    
    22   12   43 1    
    23   13   44 1    
    24   13   14 1    
    25   13   45 1    
    26   14   15 1    
    27   14   16 1    
    28   14   27 1    
    29   16   17 am   BACKBONE|DICT|INTERRES
    30   16   46 1    
    31   17   19 1    
    32   17   18 2    
    33   19   26 ar   
    34   19   20 ar   
    35   20   22 ar   
    36   20   21 1    
    37   22   24 ar   
    38   22   23 1    
    39   24   47 1    
    40   24   25 ar   
    41   25   48 1    
    42   25   26 ar   
    43   26   49 1    
    44   27   51 1    
    45   27   28 1    
    46   27   50 1    
    47   28   52 1    
    48   28   29 1    
    49   28   53 1    
    50   29   54 1    
    51   29   30 am   BACKBONE|DICT|INTERRES
    52   30   31 2    
    53   30   32 1    
    54   32   33 ar   
    55   32   39 ar   
    56   33   34 1    
    57   33   35 ar   
    58   35   36 1    
    59   35   37 ar   
    60   37   38 ar   
    61   37   55 1    
    62   38   39 ar   
    63   38   56 1    
    64   39   57 1    
@<TRIPOS>SUBSTRUCTURE
     1 UNK         1 GROUP             0       ****    0 ROOT    
@<TRIPOS>MOLECULE
185_J5_c1
99   106    1
SMALL
USER_CHARGES


@<TRIPOS>ATOM
      1 Fe1         0.0003    0.0284   -0.0287 Fe        1 UNK         0.0000 
      2 C2         -0.1313    5.5684    1.2307 C.ar      1 UNK         0.0000 
      3 C3         -1.4817    5.7393    1.5455 C.ar      1 UNK         0.0000 
      4 C4         -2.3699    4.6947    1.3354 C.ar      1 UNK         0.0000 
      5 C5         -1.9167    3.5040    0.7779 C.ar      1 UNK         0.0000 
      6 C6         -0.5703    3.2942    0.4697 C.ar      1 UNK         0.0000 
      7 O7         -0.2600    2.1575   -0.0343 O.co2     1 UNK         0.0000 
      8 C8          0.3589    4.3413    0.7170 C.ar      1 UNK         0.0000 
      9 C9          1.8513    4.1598    0.4870 C.2       1 UNK         0.0000 
     10 O10         2.4522    3.1548    0.8633 O.2       1 UNK         0.0000 
     11 N11         2.4830    5.2147   -0.0625 N.am      1 UNK         0.0000 
     12 C12         3.9244    5.4427   -0.2854 C.3       1 UNK         0.0000 
     13 H13         3.9885    5.9691   -1.2473 H         1 UNK         0.0000 
     14 C14         4.5041    6.4250    0.7797 C.3       1 UNK         0.0000 
     15 O15         3.8089    7.6686    0.7915 O.3       1 UNK         0.0000 
     16 C16         4.8669    4.1941   -0.4244 C.3       1 UNK         0.0000 
     17 C17         4.7150    3.3148   -1.7092 C.3       1 UNK         0.0000 
     18 C18         3.9856    1.9382   -1.6062 C.3       1 UNK         0.0000 
     19 C19         4.6324    0.9651   -0.5723 C.3       1 UNK         0.0000 
     20 N20         4.1919   -0.4365   -0.6491 N.am      1 UNK         0.0000 
     21 C21         2.9778   -0.8557   -0.2490 C.2       1 UNK         0.0000 
     22 O22         2.1639   -0.0371    0.1932 O.co2     1 UNK         0.0000 
     23 C23         2.5664   -2.3130   -0.5165 C.ar      1 UNK         0.0000 
     24 C24         1.2295   -2.7852   -0.3579 C.ar      1 UNK         0.0000 
     25 O25         0.2341   -2.0749   -0.0210 O.co2     1 UNK         0.0000 
     26 C26         0.9039   -4.1157   -0.6064 C.ar      1 UNK         0.0000 
     27 C27         1.8667   -5.0217   -1.0249 C.ar      1 UNK         0.0000 
     28 C28         3.1727   -4.5914   -1.2213 C.ar      1 UNK         0.0000 
     29 C29         3.5157   -3.2562   -0.9763 C.ar      1 UNK         0.0000 
     30 H30         0.5439    6.3939    1.4214 H         1 UNK         0.0000 
     31 H31        -1.8541    6.6716    1.9479 H         1 UNK         0.0000 
     32 H32        -3.4178    4.7739    1.5855 H         1 UNK         0.0000 
     33 H33        -2.6302    2.7314    0.5887 H         1 UNK         0.0000 
     34 H34         1.8966    6.0259   -0.1186 H         1 UNK         0.0000 
     35 H35         5.5530    6.6397    0.5721 H         1 UNK         0.0000 
     36 H36         4.4502    5.9817    1.7786 H         1 UNK         0.0000 
     37 H37         4.0590    8.1767    0.0095 H         1 UNK         0.0000 
     38 H38         5.8944    4.5703   -0.4342 H         1 UNK         0.0000 
     39 H39         4.8223    3.5912    0.4833 H         1 UNK         0.0000 
     40 H40         4.2586    3.9061   -2.5091 H         1 UNK         0.0000 
     41 H41         5.7299    3.0962   -2.0547 H         1 UNK         0.0000 
     42 H42         4.0030    1.4789   -2.5986 H         1 UNK         0.0000 
     43 H43         2.9200    2.0909   -1.4008 H         1 UNK         0.0000 
     44 H44         4.4679    1.3551    0.4358 H         1 UNK         0.0000 
     45 H45         5.7155    0.9840   -0.7061 H         1 UNK         0.0000 
     46 H46         4.8074   -1.1339   -1.0249 H         1 UNK         0.0000 
     47 H47        -0.1174   -4.4388   -0.4795 H         1 UNK         0.0000 
     48 H48         1.5835   -6.0494   -1.1950 H         1 UNK         0.0000 
     49 H49         3.9219   -5.2948   -1.5502 H         1 UNK         0.0000 
     50 H50         4.5357   -2.9502   -1.1623 H         1 UNK         0.0000 
     51 C51         0.1332   -1.2270   -5.5702 C.ar      1 UNK         0.0000 
     52 C52         1.4826   -1.5447   -5.7407 C.ar      1 UNK         0.0000 
     53 C53         2.3713   -1.3361   -4.6954 C.ar      1 UNK         0.0000 
     54 C54         1.9182   -0.7781   -3.5047 C.ar      1 UNK         0.0000 
     55 C55         0.5722   -0.4685   -3.2954 C.ar      1 UNK         0.0000 
     56 O56         0.2615    0.0335   -2.1578 O.co2     1 UNK         0.0000 
     57 C57        -0.3568   -0.7138   -4.3430 C.ar      1 UNK         0.0000 
     58 C58        -1.8493   -0.4832   -4.1609 C.2       1 UNK         0.0000 
     59 O59        -2.4496   -0.8601   -3.1559 O.2       1 UNK         0.0000 
     60 N60        -2.4814    0.0661   -5.2159 N.am      1 UNK         0.0000 
     61 C61        -3.9233    0.2860   -5.4438 C.3       1 UNK         0.0000 
     62 H62        -3.9897    1.2465   -5.9722 H         1 UNK         0.0000 
     63 C63        -4.5020   -0.7821   -6.4237 C.3       1 UNK         0.0000 
     64 O64        -3.8060   -0.7985   -7.6669 O.3       1 UNK         0.0000 
     65 C65        -4.8652    0.4252   -4.1947 C.3       1 UNK         0.0000 
     66 C66        -4.7132    1.7100   -3.3154 C.3       1 UNK         0.0000 
     67 C67        -3.9848    1.6073   -1.9380 C.3       1 UNK         0.0000 
     68 C68        -4.6319    0.5739   -0.9647 C.3       1 UNK         0.0000 
     69 N69        -4.1912    0.6503    0.4369 N.am      1 UNK         0.0000 
     70 C70        -2.9770    0.2491    0.8560 C.2       1 UNK         0.0000 
     71 O71        -2.1636   -0.1932    0.0369 O.co2     1 UNK         0.0000 
     72 C72        -2.5657    0.5166    2.3135 C.ar      1 UNK         0.0000 
     73 C73        -1.2288    0.3578    2.7854 C.ar      1 UNK         0.0000 
     74 O74        -0.2337    0.0210    2.0746 O.co2     1 UNK         0.0000 
     75 C75        -0.9027    0.6061    4.1159 C.ar      1 UNK         0.0000 
     76 C76        -1.8652    1.0250    5.0222 C.ar      1 UNK         0.0000 
     77 C77        -3.1714    1.2211    4.5921 C.ar      1 UNK         0.0000 
     78 C78        -3.5147    0.9759    3.2571 C.ar      1 UNK         0.0000 
     79 H79        -0.5423   -1.4170   -6.3960 H         1 UNK         0.0000 
     80 H80         1.8552   -1.9477   -6.6728 H         1 UNK         0.0000 
     81 H81         3.4187   -1.5881   -4.7740 H         1 UNK         0.0000 
     82 H82         2.6318   -0.5909   -2.7317 H         1 UNK         0.0000 
     83 H83        -1.8950    0.1229   -6.0270 H         1 UNK         0.0000 
     84 H84        -5.5507   -0.5752   -6.6402 H         1 UNK         0.0000 
     85 H85        -4.4489   -1.7799   -5.9774 H         1 UNK         0.0000 
     86 H86        -4.0562   -0.0186   -8.1782 H         1 UNK         0.0000 
     87 H87        -5.8930    0.4344   -4.5704 H         1 UNK         0.0000 
     88 H88        -4.8199   -0.4823   -3.5915 H         1 UNK         0.0000 
     89 H89        -4.2562    2.5095   -3.9068 H         1 UNK         0.0000 
     90 H90        -5.7283    2.0559   -3.0977 H         1 UNK         0.0000 
     91 H91        -4.0029    2.6000   -1.4793 H         1 UNK         0.0000 
     92 H92        -2.9190    1.4023   -2.0900 H         1 UNK         0.0000 
     93 H93        -4.4677   -0.4343   -1.3548 H         1 UNK         0.0000 
     94 H94        -5.7150    0.7082   -0.9835 H         1 UNK         0.0000 
     95 H95        -4.8065    1.0258    1.1345 H         1 UNK         0.0000 
     96 H96         0.1188    0.4795    4.4387 H         1 UNK         0.0000 
     97 H97        -1.5817    1.1949    6.0498 H         1 UNK         0.0000 
     98 H98        -3.9203    1.5499    5.2959 H         1 UNK         0.0000 
     99 H99        -4.5348    1.1621    2.9514 H         1 UNK         0.0000 
@<TRIPOS>BOND
     1    1    7 nc   
     2    1   22 nc   
     3    1   25 nc   
     4    1   56 nc   
     5    1   71 nc   
     6    1   74 nc   
     7    2   30 1    
     8    2    3 ar   
     9    2    8 ar   
    10    3   31 1    
    11    3    4 ar   
    12    4   32 1    
    13    4    5 ar   
    14    5    6 ar   
    15    5   33 1    
    16    6    8 ar   
    17    6    7 1    
    18    8    9 1    
    19    9   10 2    
    20    9   11 am   BACKBONE|DICT|INTERRES
    21   11   12 1    
    22   11   34 1    
    23   12   13 1    
    24   12   14 1    
    25   12   16 1    
    26   14   15 1    
    27   14   36 1    
    28   14   35 1    
    29   15   37 1    
    30   16   39 1    
    31   16   17 1    
    32   16   38 1    
    33   17   18 1    
    34   17   40 1    
    35   17   41 1    
    36   18   43 1    
    37   18   19 1    
    38   18   42 1    
    39   19   44 1    
    40   19   20 1    
    41   19   45 1    
    42   20   21 am   BACKBONE|DICT|INTERRES
    43   20   46 1    
    44   21   22 2    
    45   21   23 1    
    46   23   24 ar   
    47   23   29 ar   
    48   24   25 1    
    49   24   26 ar   
    50   26   47 1    
    51   26   27 ar   
    52   27   28 ar   
    53   27   48 1    
    54   28   29 ar   
    55   28   49 1    
    56   29   50 1    
    57   51   57 ar   
    58   51   52 ar   
    59   51   79 1    
    60   52   53 ar   
    61   52   80 1    
    62   53   54 ar   
    63   53   81 1    
    64   54   55 ar   
    65   54   82 1    
    66   55   56 1    
    67   55   57 ar   
    68   57   58 1    
    69   58   59 2    
    70   58   60 am   BACKBONE|DICT|INTERRES
    71   60   61 1    
    72   60   83 1    
    73   61   62 1    
    74   61   65 1    
    75   61   63 1    
    76   63   85 1    
    77   63   64 1    
    78   63   84 1    
    79   64   86 1    
    80   65   88 1    
    81   65   66 1    
    82   65   87 1    
    83   66   90 1    
    84   66   67 1    
    85   66   89 1    
    86   67   91 1    
    87   67   68 1    
    88   67   92 1    
    89   68   69 1    
    90   68   93 1    
    91   68   94 1    
    92   69   70 am   BACKBONE|DICT|INTERRES
    93   69   95 1    
    94   70   71 2    
    95   70   72 1    
    96   72   73 ar   
    97   72   78 ar   
    98   73   75 ar   
    99   73   74 1    
   100   75   96 1    
   101   75   76 ar   
   102   76   97 1    
   103   76   77 ar   
   104   77   98 1    
   105   77   78 ar   
   106   78   99 1    
@<TRIPOS>SUBSTRUCTURE
     1 UNK         1 GROUP             0       ****    0 ROOT    
@<TRIPOS>MOLECULE
185_J6_c1
99   106    1
SMALL
USER_CHARGES


@<TRIPOS>ATOM
      1 Fe1        -0.0034    0.0695   -0.0718 Fe        1 UNK         0.0000 
      2 F2         -0.5286   -3.6049   -4.7737 F         1 UNK         0.0000 
      3 C3         -1.0554   -3.2066   -3.5842 C.ar      1 UNK         0.0000 
      4 C4         -2.3669   -2.7422   -3.6083 C.ar      1 UNK         0.0000 
      5 C5         -2.9871   -2.3646   -2.4315 C.ar      1 UNK         0.0000 
      6 C6         -2.2652   -2.3475   -1.2427 C.ar      1 UNK         0.0000 
      7 C7         -0.9128   -2.6782   -1.2197 C.ar      1 UNK         0.0000 
      8 O8         -0.2744   -2.3097   -0.1834 O.co2     1 UNK         0.0000 
      9 C9         -0.3097   -3.2387   -2.3726 C.ar      1 UNK         0.0000 
     10 C10         1.0347   -3.9573   -2.3163 C.2       1 UNK         0.0000 
     11 O11         1.3886   -4.6580   -1.3625 O.2       1 UNK         0.0000 
     12 N12         1.7436   -3.9675   -3.4595 N.am      1 UNK         0.0000 
     13 C13         2.8524   -4.8804   -3.7447 C.3       1 UNK         0.0000 
     14 C14         4.0763   -4.1806   -4.3491 C.3       1 UNK         0.0000 
     15 C15         4.6361   -3.0494   -3.4671 C.3       1 UNK         0.0000 
     16 C16         5.8846   -2.3822   -4.0870 C.3       1 UNK         0.0000 
     17 C17         6.5000   -1.2034   -3.2910 C.3       1 UNK         0.0000 
     18 H18         7.1315   -0.6635   -3.9966 H         1 UNK         0.0000 
     19 C19         7.4934   -1.6191   -2.1533 C.3       1 UNK         0.0000 
     20 O20         7.0263   -2.6745   -1.3323 O.3       1 UNK         0.0000 
     21 N21         5.5050   -0.1801   -2.9467 N.am      1 UNK         0.0000 
     22 C22         4.8409   -0.0289   -1.7934 C.2       1 UNK         0.0000 
     23 O23         5.1178   -0.7356   -0.8137 O.2       1 UNK         0.0000 
     24 C24         3.8001    1.0969   -1.7996 C.ar      1 UNK         0.0000 
     25 C25         2.6012    1.0286   -1.0440 C.ar      1 UNK         0.0000 
     26 O26         2.2957   -0.0683   -0.4491 O.co2     1 UNK         0.0000 
     27 C27         1.7570    2.1767   -0.9864 C.ar      1 UNK         0.0000 
     28 O28         0.7499    2.3276   -0.2178 O.co2     1 UNK         0.0000 
     29 C29         2.0456    3.2835   -1.7852 C.ar      1 UNK         0.0000 
     30 C30         3.1616    3.3152   -2.6052 C.ar      1 UNK         0.0000 
     31 C31         4.0415    2.2441   -2.5951 C.ar      1 UNK         0.0000 
     32 H32        -2.9057   -2.6914   -4.5392 H         1 UNK         0.0000 
     33 H33        -3.9936   -1.9789   -2.4231 H         1 UNK         0.0000 
     34 H34        -2.7319   -1.9409   -0.3553 H         1 UNK         0.0000 
     35 H35         1.3754   -3.3712   -4.1825 H         1 UNK         0.0000 
     36 H36         3.1787   -5.3738   -2.8242 H         1 UNK         0.0000 
     37 H37         2.4920   -5.6742   -4.3981 H         1 UNK         0.0000 
     38 H38         3.8124   -3.7865   -5.3309 H         1 UNK         0.0000 
     39 H39         4.8562   -4.9282   -4.5136 H         1 UNK         0.0000 
     40 H40         3.8524   -2.3026   -3.3166 H         1 UNK         0.0000 
     41 H41         4.8510   -3.4360   -2.4699 H         1 UNK         0.0000 
     42 H42         6.6515   -3.1416   -4.2607 H         1 UNK         0.0000 
     43 H43         5.5973   -2.0140   -5.0732 H         1 UNK         0.0000 
     44 H44         8.4494   -1.9292   -2.5735 H         1 UNK         0.0000 
     45 H45         7.7215   -0.7563   -1.5255 H         1 UNK         0.0000 
     46 H46         6.1829   -2.3546   -0.9525 H         1 UNK         0.0000 
     47 H47         5.0816    0.3586   -3.6807 H         1 UNK         0.0000 
     48 H48         1.3750    4.1343   -1.7599 H         1 UNK         0.0000 
     49 H49         3.3344    4.1781   -3.2294 H         1 UNK         0.0000 
     50 H50         4.9228    2.3078   -3.2192 H         1 UNK         0.0000 
     51 F51         0.5192    4.7760    3.5831 F         1 UNK         0.0000 
     52 C52         1.0453    3.5834    3.1943 C.ar      1 UNK         0.0000 
     53 C53         2.3598    3.6027    2.7369 C.ar      1 UNK         0.0000 
     54 C54         2.9796    2.4234    2.3681 C.ar      1 UNK         0.0000 
     55 C55         2.2561    1.2358    2.3521 C.ar      1 UNK         0.0000 
     56 C56         0.9019    1.2172    2.6771 C.ar      1 UNK         0.0000 
     57 O57         0.2637    0.1810    2.3077 O.co2     1 UNK         0.0000 
     58 C58         0.2976    2.3726    3.2287 C.ar      1 UNK         0.0000 
     59 C59        -1.0518    2.3208    3.9401 C.2       1 UNK         0.0000 
     60 O60        -1.4204    1.3614    4.6255 O.2       1 UNK         0.0000 
     61 N61        -1.7492    3.4704    3.9616 N.am      1 UNK         0.0000 
     62 C62        -2.8599    3.7570    4.8717 C.3       1 UNK         0.0000 
     63 C63        -4.0799    4.3653    4.1686 C.3       1 UNK         0.0000 
     64 C64        -4.6402    3.4839    3.0374 C.3       1 UNK         0.0000 
     65 C65        -5.8819    4.1102    2.3637 C.3       1 UNK         0.0000 
     66 C66        -6.4967    3.3161    1.1833 C.3       1 UNK         0.0000 
     67 H67        -7.1225    4.0230    0.6384 H         1 UNK         0.0000 
     68 C68        -7.4978    2.1849    1.5971 C.3       1 UNK         0.0000 
     69 O69        -7.0370    1.3595    2.6517 O.3       1 UNK         0.0000 
     70 N70        -5.4984    2.9649    0.1650 N.am      1 UNK         0.0000 
     71 C71        -4.8443    1.8064    0.0138 C.2       1 UNK         0.0000 
     72 O72        -5.1310    0.8271    0.7157 O.2       1 UNK         0.0000 
     73 C73        -3.7998    1.8073   -1.1109 C.ar      1 UNK         0.0000 
     74 C74        -2.6044    1.0489   -1.0371 C.ar      1 UNK         0.0000 
     75 O75        -2.3022    0.4545    0.0605 O.co2     1 UNK         0.0000 
     76 C76        -1.7566    0.9872   -2.1848 C.ar      1 UNK         0.0000 
     77 O77        -0.7519    0.2161   -2.3316 O.co2     1 UNK         0.0000 
     78 C78        -2.0421    1.7851   -3.2927 C.ar      1 UNK         0.0000 
     79 C79        -3.1555    2.6071   -3.3290 C.ar      1 UNK         0.0000 
     80 C80        -4.0385    2.6010   -2.2590 C.ar      1 UNK         0.0000 
     81 H81         2.9006    4.5323    2.6853 H         1 UNK         0.0000 
     82 H82         3.9882    2.4115    1.9876 H         1 UNK         0.0000 
     83 H83         2.7221    0.3461    1.9502 H         1 UNK         0.0000 
     84 H84        -1.3686    4.1967    3.3770 H         1 UNK         0.0000 
     85 H85        -3.1898    2.8364    5.3627 H         1 UNK         0.0000 
     86 H86        -2.5003    4.4078    5.6681 H         1 UNK         0.0000 
     87 H87        -3.8120    5.3457    3.7736 H         1 UNK         0.0000 
     88 H88        -4.8607    4.5336    4.9145 H         1 UNK         0.0000 
     89 H89        -3.8546    3.3270    2.2941 H         1 UNK         0.0000 
     90 H90        -4.8621    2.4889    3.4259 H         1 UNK         0.0000 
     91 H91        -6.6509    4.2898    3.1197 H         1 UNK         0.0000 
     92 H92        -5.5867    5.0941    1.9956 H         1 UNK         0.0000 
     93 H93        -8.4518    2.6107    1.9061 H         1 UNK         0.0000 
     94 H94        -7.7283    1.5594    0.7334 H         1 UNK         0.0000 
     95 H95        -6.1970    0.9735    2.3306 H         1 UNK         0.0000 
     96 H96        -5.0633    3.6968   -0.3672 H         1 UNK         0.0000 
     97 H97        -1.3693    1.7564   -4.1425 H         1 UNK         0.0000 
     98 H98        -3.3257    3.2299   -4.1933 H         1 UNK         0.0000 
     99 H99        -4.9182    3.2265   -2.3260 H         1 UNK         0.0000 
@<TRIPOS>BOND
     1    1    8 nc   
     2    1   26 nc   
     3    1   28 nc   
     4    1   57 nc   
     5    1   75 nc   
     6    1   77 nc   
     7    2    3 1    
     8    3    4 ar   
     9    3    9 ar   
    10    4    5 ar   
    11    4   32 1    
    12    5    6 ar   
    13    5   33 1    
    14    6    7 ar   
    15    6   34 1    
    16    7    8 1    
    17    7    9 ar   
    18    9   10 1    
    19   10   11 2    
    20   10   12 am   BACKBONE|DICT|INTERRES
    21   12   13 1    
    22   12   35 1    
    23   13   36 1    
    24   13   14 1    
    25   13   37 1    
    26   14   15 1    
    27   14   38 1    
    28   14   39 1    
    29   15   40 1    
    30   15   41 1    
    31   15   16 1    
    32   16   17 1    
    33   16   42 1    
    34   16   43 1    
    35   17   18 1    
    36   17   21 1    
    37   17   19 1    
    38   19   45 1    
    39   19   20 1    
    40   19   44 1    
    41   20   46 1    
    42   21   22 am   BACKBONE|DICT|INTERRES
    43   21   47 1    
    44   22   24 1    
    45   22   23 2    
    46   24   25 ar   
    47   24   31 ar   
    48   25   27 ar   
    49   25   26 1    
    50   27   28 1    
    51   27   29 ar   
    52   29   48 1    
    53   29   30 ar   
    54   30   31 ar   
    55   30   49 1    
    56   31   50 1    
    57   51   52 1    
    58   52   58 ar   
    59   52   53 ar   
    60   53   54 ar   
    61   53   81 1    
    62   54   55 ar   
    63   54   82 1    
    64   55   56 ar   
    65   55   83 1    
    66   56   58 ar   
    67   56   57 1    
    68   58   59 1    
    69   59   60 2    
    70   59   61 am   BACKBONE|DICT|INTERRES
    71   61   62 1    
    72   61   84 1    
    73   62   85 1    
    74   62   86 1    
    75   62   63 1    
    76   63   88 1    
    77   63   64 1    
    78   63   87 1    
    79   64   90 1    
    80   64   65 1    
    81   64   89 1    
    82   65   91 1    
    83   65   66 1    
    84   65   92 1    
    85   66   67 1    
    86   66   68 1    
    87   66   70 1    
    88   68   69 1    
    89   68   93 1    
    90   68   94 1    
    91   69   95 1    
    92   70   71 am   BACKBONE|DICT|INTERRES
    93   70   96 1    
    94   71   72 2    
    95   71   73 1    
    96   73   74 ar   
    97   73   80 ar   
    98   74   75 1    
    99   74   76 ar   
   100   76   77 1    
   101   76   78 ar   
   102   78   79 ar   
   103   78   97 1    
   104   79   80 ar   
   105   79   98 1    
   106   80   99 1    
@<TRIPOS>SUBSTRUCTURE
     1 UNK         1 GROUP             0       ****    0 ROOT    
@<TRIPOS>MOLECULE
185_J7_c1
99   106    1
SMALL
USER_CHARGES


@<TRIPOS>ATOM
      1 Fe1         0.0012    0.0087   -0.0112 Fe        1 UNK         0.0000 
      2 F2         -1.9015   -3.3072   -4.4790 F         1 UNK         0.0000 
      3 C3         -2.0223   -3.0640   -3.1462 C.ar      1 UNK         0.0000 
      4 C4         -3.3004   -2.7587   -2.6926 C.ar      1 UNK         0.0000 
      5 C5         -3.5270   -2.5230   -1.3539 C.ar      1 UNK         0.0000 
      6 C6         -2.4576   -2.5119   -0.4656 C.ar      1 UNK         0.0000 
      7 C7         -1.1522   -2.7220   -0.9095 C.ar      1 UNK         0.0000 
      8 O8         -0.2514   -2.3939   -0.0823 O.co2     1 UNK         0.0000 
      9 C9         -0.9064   -3.1026   -2.2603 C.ar      1 UNK         0.0000 
     10 C10         0.4722   -3.5667   -2.7501 C.2       1 UNK         0.0000 
     11 O11         1.4410   -3.7217   -2.0075 O.2       1 UNK         0.0000 
     12 N12         0.5655   -3.9403   -4.0477 N.am      1 UNK         0.0000 
     13 C13         1.5913   -4.7572   -4.7259 C.3       1 UNK         0.0000 
     14 H14         1.6298   -4.3711   -5.7441 H         1 UNK         0.0000 
     15 C15         1.1662   -6.2428   -4.8113 C.3       1 UNK         0.0000 
     16 O16        -0.0360   -6.4144   -5.5490 O.3       1 UNK         0.0000 
     17 C17         3.0488   -4.6556   -4.1954 C.3       1 UNK         0.0000 
     18 C18         3.6710   -3.2558   -4.3357 C.3       1 UNK         0.0000 
     19 C19         4.9744   -3.1011   -3.5263 C.3       1 UNK         0.0000 
     20 C20         5.6619   -1.7400   -3.7229 C.3       1 UNK         0.0000 
     21 N21         4.7771   -0.6373   -3.3875 N.am      1 UNK         0.0000 
     22 C22         4.6209   -0.1272   -2.1561 C.2       1 UNK         0.0000 
     23 O23         5.3669   -0.4653   -1.2216 O.2       1 UNK         0.0000 
     24 C24         3.5726    0.9724   -2.0622 C.ar      1 UNK         0.0000 
     25 C25         2.5192    0.9628   -1.1026 C.ar      1 UNK         0.0000 
     26 O26         2.3208   -0.0947   -0.3974 O.co2     1 UNK         0.0000 
     27 C27         1.6828    2.1066   -0.9942 C.ar      1 UNK         0.0000 
     28 O28         0.8096    2.3051   -0.0748 O.co2     1 UNK         0.0000 
     29 C29         1.8075    3.1405   -1.9242 C.ar      1 UNK         0.0000 
     30 C30         2.7570    3.0973   -2.9372 C.ar      1 UNK         0.0000 
     31 C31         3.6463    2.0325   -2.9907 C.ar      1 UNK         0.0000 
     32 H32        -4.1206   -2.7150   -3.3857 H         1 UNK         0.0000 
     33 H33        -4.5076   -2.2470   -0.9954 H         1 UNK         0.0000 
     34 H34        -2.6342   -2.1891    0.5553 H         1 UNK         0.0000 
     35 H35        -0.2961   -3.7757   -4.5468 H         1 UNK         0.0000 
     36 H36         1.0297   -6.6556   -3.8070 H         1 UNK         0.0000 
     37 H37         1.9392   -6.8359   -5.3090 H         1 UNK         0.0000 
     38 H38         0.0995   -6.0924   -6.4441 H         1 UNK         0.0000 
     39 H39         3.6894   -5.3631   -4.7233 H         1 UNK         0.0000 
     40 H40         3.0896   -4.9759   -3.1536 H         1 UNK         0.0000 
     41 H41         2.9562   -2.5065   -3.9918 H         1 UNK         0.0000 
     42 H42         3.8504   -3.0448   -5.3916 H         1 UNK         0.0000 
     43 H43         5.6760   -3.9006   -3.7820 H         1 UNK         0.0000 
     44 H44         4.7454   -3.2317   -2.4635 H         1 UNK         0.0000 
     45 H45         5.9242   -1.6195   -4.7715 H         1 UNK         0.0000 
     46 H46         6.5935   -1.7010   -3.1470 H         1 UNK         0.0000 
     47 H47         4.0344   -0.4037   -4.0260 H         1 UNK         0.0000 
     48 H48         1.1271    3.9849   -1.8633 H         1 UNK         0.0000 
     49 H49         2.8033    3.8856   -3.6687 H         1 UNK         0.0000 
     50 H50         4.4012    2.0201   -3.7650 H         1 UNK         0.0000 
     51 F51         1.9077    4.4765    3.2988 F         1 UNK         0.0000 
     52 C52         2.0271    3.1433    3.0565 C.ar      1 UNK         0.0000 
     53 C53         3.3039    2.6888    2.7470 C.ar      1 UNK         0.0000 
     54 C54         3.5296    1.3495    2.5129 C.ar      1 UNK         0.0000 
     55 C55         2.4598    0.4616    2.5068 C.ar      1 UNK         0.0000 
     56 C56         1.1554    0.9066    2.7200 C.ar      1 UNK         0.0000 
     57 O57         0.2533    0.0805    2.3919 O.co2     1 UNK         0.0000 
     58 C58         0.9110    2.2577    3.1002 C.ar      1 UNK         0.0000 
     59 C59        -0.4656    2.7477    3.5702 C.2       1 UNK         0.0000 
     60 O60        -1.4310    2.0032    3.7391 O.2       1 UNK         0.0000 
     61 N61        -0.5595    4.0478    3.9341 N.am      1 UNK         0.0000 
     62 C62        -1.5826    4.7296    4.7519 C.3       1 UNK         0.0000 
     63 H63        -1.6222    5.7463    4.3624 H         1 UNK         0.0000 
     64 C64        -1.1546    4.8206    6.2368 C.3       1 UNK         0.0000 
     65 O65         0.0460    5.5618    6.4034 O.3       1 UNK         0.0000 
     66 C66        -3.0406    4.1993    4.6555 C.3       1 UNK         0.0000 
     67 C67        -3.6644    4.3345    3.2563 C.3       1 UNK         0.0000 
     68 C68        -4.9673    3.5237    3.1050 C.3       1 UNK         0.0000 
     69 C69        -5.6579    3.7189    1.7453 C.3       1 UNK         0.0000 
     70 N70        -4.7731    3.3878    0.6412 N.am      1 UNK         0.0000 
     71 C71        -4.6138    2.1571    0.1296 C.2       1 UNK         0.0000 
     72 O72        -5.3579    1.2211    0.4664 O.2       1 UNK         0.0000 
     73 C73        -3.5627    2.0664   -0.9680 C.ar      1 UNK         0.0000 
     74 C74        -2.5135    1.1021   -0.9618 C.ar      1 UNK         0.0000 
     75 O75        -2.3190    0.3912    0.0925 O.co2     1 UNK         0.0000 
     76 C76        -1.6764    0.9958   -2.1051 C.ar      1 UNK         0.0000 
     77 O77        -0.8080    0.0726   -2.3074 O.co2     1 UNK         0.0000 
     78 C78        -1.7947    1.9320   -3.1339 C.ar      1 UNK         0.0000 
     79 C79        -2.7391    2.9497   -3.0864 C.ar      1 UNK         0.0000 
     80 C80        -3.6301    3.0012   -2.0229 C.ar      1 UNK         0.0000 
     81 H81         4.1242    3.3813    2.7000 H         1 UNK         0.0000 
     82 H82         4.5092    0.9906    2.2337 H         1 UNK         0.0000 
     83 H83         2.6348   -0.5590    2.1825 H         1 UNK         0.0000 
     84 H84         0.3011    4.5464    3.7616 H         1 UNK         0.0000 
     85 H85        -1.0152    3.8181    6.6527 H         1 UNK         0.0000 
     86 H86        -1.9275    5.3184    6.8299 H         1 UNK         0.0000 
     87 H87        -0.0934    6.4566    6.0821 H         1 UNK         0.0000 
     88 H88        -3.6802    4.7301    5.3617 H         1 UNK         0.0000 
     89 H89        -3.0820    3.1588    4.9799 H         1 UNK         0.0000 
     90 H90        -2.9499    3.9885    2.5075 H         1 UNK         0.0000 
     91 H91        -3.8445    5.3897    3.0418 H         1 UNK         0.0000 
     92 H92        -5.6674    3.7791    3.9058 H         1 UNK         0.0000 
     93 H93        -4.7367    2.4613    3.2359 H         1 UNK         0.0000 
     94 H94        -5.9238    4.7667    1.6259 H         1 UNK         0.0000 
     95 H95        -6.5873    3.1396    1.7069 H         1 UNK         0.0000 
     96 H96        -4.0325    4.0287    0.4079 H         1 UNK         0.0000 
     97 H97        -1.1135    1.8724   -3.9776 H         1 UNK         0.0000 
     98 H98        -2.7803    3.6857   -3.8708 H         1 UNK         0.0000 
     99 H99        -4.3815    3.7791   -2.0081 H         1 UNK         0.0000 
@<TRIPOS>BOND
     1    1    8 nc   
     2    1   26 nc   
     3    1   28 nc   
     4    1   57 nc   
     5    1   75 nc   
     6    1   77 nc   
     7    2    3 1    
     8    3    4 ar   
     9    3    9 ar   
    10    4    5 ar   
    11    4   32 1    
    12    5   33 1    
    13    5    6 ar   
    14    6   34 1    
    15    6    7 ar   
    16    7    8 1    
    17    7    9 ar   
    18    9   10 1    
    19   10   11 2    
    20   10   12 am   BACKBONE|DICT|INTERRES
    21   12   13 1    
    22   12   35 1    
    23   13   14 1    
    24   13   17 1    
    25   13   15 1    
    26   15   36 1    
    27   15   16 1    
    28   15   37 1    
    29   16   38 1    
    30   17   40 1    
    31   17   18 1    
    32   17   39 1    
    33   18   41 1    
    34   18   19 1    
    35   18   42 1    
    36   19   44 1    
    37   19   20 1    
    38   19   43 1    
    39   20   21 1    
    40   20   46 1    
    41   20   45 1    
    42   21   22 am   BACKBONE|DICT|INTERRES
    43   21   47 1    
    44   22   24 1    
    45   22   23 2    
    46   24   25 ar   
    47   24   31 ar   
    48   25   27 ar   
    49   25   26 1    
    50   27   28 1    
    51   27   29 ar   
    52   29   48 1    
    53   29   30 ar   
    54   30   31 ar   
    55   30   49 1    
    56   31   50 1    
    57   51   52 1    
    58   52   58 ar   
    59   52   53 ar   
    60   53   54 ar   
    61   53   81 1    
    62   54   55 ar   
    63   54   82 1    
    64   55   56 ar   
    65   55   83 1    
    66   56   58 ar   
    67   56   57 1    
    68   58   59 1    
    69   59   61 am   BACKBONE|DICT|INTERRES
    70   59   60 2    
    71   61   84 1    
    72   61   62 1    
    73   62   63 1    
    74   62   64 1    
    75   62   66 1    
    76   64   65 1    
    77   64   85 1    
    78   64   86 1    
    79   65   87 1    
    80   66   89 1    
    81   66   88 1    
    82   66   67 1    
    83   67   68 1    
    84   67   90 1    
    85   67   91 1    
    86   68   93 1    
    87   68   92 1    
    88   68   69 1    
    89   69   70 1    
    90   69   94 1    
    91   69   95 1    
    92   70   71 am   BACKBONE|DICT|INTERRES
    93   70   96 1    
    94   71   72 2    
    95   71   73 1    
    96   73   74 ar   
    97   73   80 ar   
    98   74   75 1    
    99   74   76 ar   
   100   76   77 1    
   101   76   78 ar   
   102   78   79 ar   
   103   78   97 1    
   104   79   80 ar   
   105   79   98 1    
   106   80   99 1    
@<TRIPOS>SUBSTRUCTURE
     1 UNK         1 GROUP             0       ****    0 ROOT    
@<TRIPOS>MOLECULE
185_J8_c1
100   107    1
SMALL
USER_CHARGES


@<TRIPOS>ATOM
      1 Fe1         0.0116   -0.0368    0.1381 Fe        1 UNK         0.0000 
      2 F2          0.5983   -5.8788    2.9469 F         1 UNK         0.0000 
      3 C3         -0.1228   -4.8739    2.3851 C.ar      1 UNK         0.0000 
      4 C4         -1.4150   -4.6606    2.8653 C.ar      1 UNK         0.0000 
      5 C5         -2.2340   -3.7030    2.2880 C.ar      1 UNK         0.0000 
      6 C6         -1.7328   -2.9154    1.2569 C.ar      1 UNK         0.0000 
      7 C7         -0.4201   -3.0458    0.8083 C.ar      1 UNK         0.0000 
      8 O8         -0.0305   -2.1674   -0.0370 O.co2     1 UNK         0.0000 
      9 C9          0.3969   -4.0891    1.3229 C.ar      1 UNK         0.0000 
     10 C10         1.7482   -4.4411    0.7205 C.2       1 UNK         0.0000 
     11 O11         1.9144   -4.4716   -0.4962 O.2       1 UNK         0.0000 
     12 N12         2.7250   -4.7782    1.5857 N.am      1 UNK         0.0000 
     13 C13         4.1154   -5.1838    1.3005 C.3       1 UNK         0.0000 
     14 H14         4.4073   -5.6557    2.2419 H         1 UNK         0.0000 
     15 C15         4.2559   -6.3002    0.2330 C.3       1 UNK         0.0000 
     16 O16         5.5899   -6.7759    0.1508 O.3       1 UNK         0.0000 
     17 C17         5.0936   -3.9873    1.1313 C.3       1 UNK         0.0000 
     18 C18         5.0768   -3.2838   -0.2437 C.3       1 UNK         0.0000 
     19 C19         5.4710   -1.7871   -0.2380 C.3       1 UNK         0.0000 
     20 C20         4.6155   -0.9592    0.7369 C.3       1 UNK         0.0000 
     21 N21         4.3077    0.4152    0.2915 N.am      1 UNK         0.0000 
     22 C22         3.0617    0.7844   -0.0797 C.2       1 UNK         0.0000 
     23 O23         2.1541   -0.0537   -0.1241 O.co2     1 UNK         0.0000 
     24 C24         2.7327    2.2448   -0.3920 C.ar      1 UNK         0.0000 
     25 C25         1.3928    2.7391   -0.3847 C.ar      1 UNK         0.0000 
     26 O26         0.3498    2.0626   -0.0865 O.co2     1 UNK         0.0000 
     27 C27         1.1256    4.0792   -0.6849 C.ar      1 UNK         0.0000 
     28 C28         2.1526    4.9593   -1.0096 C.ar      1 UNK         0.0000 
     29 C29         3.4602    4.5037   -1.0228 C.ar      1 UNK         0.0000 
     30 C30         3.7546    3.1699   -0.7235 C.ar      1 UNK         0.0000 
     31 F31         5.0571    2.8040   -0.7594 F         1 UNK         0.0000 
     32 H32        -1.7987   -5.2741    3.6668 H         1 UNK         0.0000 
     33 H33        -3.2548   -3.5821    2.6244 H         1 UNK         0.0000 
     34 H34        -2.3794   -2.2001    0.7889 H         1 UNK         0.0000 
     35 H35         2.4223   -4.8445    2.5471 H         1 UNK         0.0000 
     36 H36         3.5903   -7.1377    0.4594 H         1 UNK         0.0000 
     37 H37         3.9478   -5.9308   -0.7498 H         1 UNK         0.0000 
     38 H38         5.7278   -7.4700    0.8079 H         1 UNK         0.0000 
     39 H39         6.1149   -4.3418    1.3061 H         1 UNK         0.0000 
     40 H40         4.8931   -3.2933    1.9499 H         1 UNK         0.0000 
     41 H41         5.7404   -3.8231   -0.9223 H         1 UNK         0.0000 
     42 H42         4.0832   -3.3606   -0.6802 H         1 UNK         0.0000 
     43 H43         5.3334   -1.4021   -1.2574 H         1 UNK         0.0000 
     44 H44         6.5297   -1.6462    0.0123 H         1 UNK         0.0000 
     45 H45         3.6993   -1.5435    0.8771 H         1 UNK         0.0000 
     46 H46         5.0790   -0.9019    1.7250 H         1 UNK         0.0000 
     47 H47         5.0145    1.1340    0.4257 H         1 UNK         0.0000 
     48 H48         0.1091    4.4569   -0.6307 H         1 UNK         0.0000 
     49 H49         1.9201    5.9944   -1.2216 H         1 UNK         0.0000 
     50 H50         4.2543    5.1983   -1.2636 H         1 UNK         0.0000 
     51 F51        -0.5984   -3.0063    5.9053 F         1 UNK         0.0000 
     52 C52         0.1274   -2.4213    4.9151 C.ar      1 UNK         0.0000 
     53 C53         1.4201   -2.9039    4.6900 C.ar      1 UNK         0.0000 
     54 C54         2.2422   -2.3146    3.7416 C.ar      1 UNK         0.0000 
     55 C55         1.7434   -1.2689    2.9746 C.ar      1 UNK         0.0000 
     56 C56         0.4310   -0.8277    3.1144 C.ar      1 UNK         0.0000 
     57 O57         0.0419    0.0365    2.2586 O.co2     1 UNK         0.0000 
     58 C58        -0.3925   -1.3520    4.1448 C.ar      1 UNK         0.0000 
     59 C59        -1.7442   -0.7471    4.5014 C.2       1 UNK         0.0000 
     60 O60        -1.9060    0.4696    4.5593 O.2       1 UNK         0.0000 
     61 N61        -2.7357   -1.6069    4.8143 N.am      1 UNK         0.0000 
     62 C62        -4.1286   -1.2998    5.1977 C.3       1 UNK         0.0000 
     63 H63        -4.4378   -2.2344    5.6696 H         1 UNK         0.0000 
     64 C64        -4.2774   -0.2245    6.3073 C.3       1 UNK         0.0000 
     65 O65        -5.6117   -0.1497    6.7950 O.3       1 UNK         0.0000 
     66 C66        -5.0899   -1.1295    3.9864 C.3       1 UNK         0.0000 
     67 C67        -5.0657    0.2450    3.2776 C.3       1 UNK         0.0000 
     68 C68        -5.4534    0.2399    1.7777 C.3       1 UNK         0.0000 
     69 C69        -4.5843   -0.7271    0.9590 C.3       1 UNK         0.0000 
     70 N70        -4.2784   -0.2989   -0.4169 N.am      1 UNK         0.0000 
     71 C71        -3.0423    0.0935   -0.7975 C.2       1 UNK         0.0000 
     72 O72        -2.1387    0.1593    0.0510 O.co2     1 UNK         0.0000 
     73 C73        -2.7281    0.3750   -2.2591 C.ar      1 UNK         0.0000 
     74 C74        -1.3845    0.3144   -2.7474 C.ar      1 UNK         0.0000 
     75 O75        -0.2824   -0.0724   -2.0096 O.3       1 UNK         0.0000 
     76 C76        -1.1105    0.6326   -4.0843 C.ar      1 UNK         0.0000 
     77 C77        -2.1317    0.9925   -4.9546 C.ar      1 UNK         0.0000 
     78 C78        -3.4427    1.0190   -4.5089 C.ar      1 UNK         0.0000 
     79 C79        -3.7418    0.7207   -3.1783 C.ar      1 UNK         0.0000 
     80 F80        -5.0394    0.7623   -2.8098 F         1 UNK         0.0000 
     81 H81         1.7964   -3.7225    5.2831 H         1 UNK         0.0000 
     82 H82         3.2609   -2.6536    3.6122 H         1 UNK         0.0000 
     83 H83         2.3896   -0.7775    2.2717 H         1 UNK         0.0000 
     84 H84        -2.4419   -2.5704    4.8839 H         1 UNK         0.0000 
     85 H85        -3.5990   -0.4375    7.1377 H         1 UNK         0.0000 
     86 H86        -3.9775    0.7546    5.9242 H         1 UNK         0.0000 
     87 H87        -5.7471   -0.8195    7.4772 H         1 UNK         0.0000 
     88 H88        -6.1168   -1.2990    4.3274 H         1 UNK         0.0000 
     89 H89        -4.8825   -1.9473    3.2952 H         1 UNK         0.0000 
     90 H90        -5.7298    0.9297    3.8130 H         1 UNK         0.0000 
     91 H91        -4.0669    0.6787    3.3622 H         1 UNK         0.0000 
     92 H92        -5.3132    1.2602    1.3937 H         1 UNK         0.0000 
     93 H93        -6.5101   -0.0143    1.6287 H         1 UNK         0.0000 
     94 H94        -3.6731   -0.8476    1.5464 H         1 UNK         0.0000 
     95 H95        -5.0356   -1.7201    0.9152 H         1 UNK         0.0000 
     96 H96        -5.0115   -0.3865   -1.1122 H         1 UNK         0.0000 
     97 H97         0.4631   -0.2264   -2.6197 H         1 UNK         0.0000 
     98 H98        -0.0988    0.5836   -4.4599 H         1 UNK         0.0000 
     99 H99        -1.8971    1.2206   -5.9847 H         1 UNK         0.0000 
    100 H100       -4.2361    1.2719   -5.1999 H         1 UNK         0.0000 
@<TRIPOS>BOND
     1    1    8 nc   
     2    1   23 nc   
     3    1   26 nc   
     4    1   57 nc   
     5    1   72 nc   
     6    1   75 nc   
     7    2    3 1    
     8    3    4 ar   
     9    3    9 ar   
    10    4   32 1    
    11    4    5 ar   
    12    5   33 1    
    13    5    6 ar   
    14    6    7 ar   
    15    6   34 1    
    16    7    9 ar   
    17    7    8 1    
    18    9   10 1    
    19   10   12 am   BACKBONE|DICT|INTERRES
    20   10   11 2    
    21   12   35 1    
    22   12   13 1    
    23   13   14 1    
    24   13   15 1    
    25   13   17 1    
    26   15   36 1    
    27   15   16 1    
    28   15   37 1    
    29   16   38 1    
    30   17   39 1    
    31   17   40 1    
    32   17   18 1    
    33   18   19 1    
    34   18   41 1    
    35   18   42 1    
    36   19   44 1    
    37   19   20 1    
    38   19   43 1    
    39   20   46 1    
    40   20   21 1    
    41   20   45 1    
    42   21   47 1    
    43   21   22 am   BACKBONE|DICT|INTERRES
    44   22   23 2    
    45   22   24 1    
    46   24   25 ar   
    47   24   30 ar   
    48   25   26 1    
    49   25   27 ar   
    50   27   48 1    
    51   27   28 ar   
    52   28   29 ar   
    53   28   49 1    
    54   29   30 ar   
    55   29   50 1    
    56   30   31 1    
    57   51   52 1    
    58   52   53 ar   
    59   52   58 ar   
    60   53   81 1    
    61   53   54 ar   
    62   54   55 ar   
    63   54   82 1    
    64   55   56 ar   
    65   55   83 1    
    66   56   58 ar   
    67   56   57 1    
    68   58   59 1    
    69   59   61 am   BACKBONE|DICT|INTERRES
    70   59   60 2    
    71   61   84 1    
    72   61   62 1    
    73   62   63 1    
    74   62   64 1    
    75   62   66 1    
    76   64   65 1    
    77   64   85 1    
    78   64   86 1    
    79   65   87 1    
    80   66   88 1    
    81   66   67 1    
    82   66   89 1    
    83   67   90 1    
    84   67   68 1    
    85   67   91 1    
    86   68   69 1    
    87   68   92 1    
    88   68   93 1    
    89   69   95 1    
    90   69   94 1    
    91   69   70 1    
    92   70   71 am   BACKBONE|DICT|INTERRES
    93   70   96 1    
    94   71   72 2    
    95   71   73 1    
    96   73   74 ar   
    97   73   79 ar   
    98   74   75 1    
    99   74   76 ar   
   100   75   97 1    
   101   76   77 ar   
   102   76   98 1    
   103   77   78 ar   
   104   77   99 1    
   105   78   79 ar   
   106   78  100 1    
   107   79   80 1    
@<TRIPOS>SUBSTRUCTURE
     1 UNK         1 GROUP             0       ****    0 ROOT    
@<TRIPOS>MOLECULE
185_J9_c1
100   107    1
SMALL
USER_CHARGES


@<TRIPOS>ATOM
      1 Fe1        -0.0005    0.0526   -0.1014 Fe        1 UNK         0.0000 
      2 C2         -1.7506   -5.2888    0.6204 C.ar      1 UNK         0.0000 
      3 C3         -2.5131   -5.9024    1.6193 C.ar      1 UNK         0.0000 
      4 C4         -2.8962   -5.1867    2.7496 C.ar      1 UNK         0.0000 
      5 C5         -2.5143   -3.8570    2.8914 C.ar      1 UNK         0.0000 
      6 C6         -1.7539   -3.2364    1.8987 C.ar      1 UNK         0.0000 
      7 F7         -1.4182   -1.9473    2.1120 F         1 UNK         0.0000 
      8 C8         -1.3409   -3.9397    0.7415 C.ar      1 UNK         0.0000 
      9 C9         -0.4994   -3.2536   -0.3294 C.2       1 UNK         0.0000 
     10 O10        -0.1837   -2.0519   -0.2387 O.co2     1 UNK         0.0000 
     11 N11        -0.0850   -3.9896   -1.3903 N.am      1 UNK         0.0000 
     12 C12         0.6870   -3.4469   -2.5198 C.3       1 UNK         0.0000 
     13 C13         2.1870   -3.8125   -2.4635 C.3       1 UNK         0.0000 
     14 C14         3.0411   -2.9475   -3.4209 C.3       1 UNK         0.0000 
     15 C15         4.5567   -3.0076   -3.1025 C.3       1 UNK         0.0000 
     16 C16         5.3858   -1.7672   -3.5453 C.3       1 UNK         0.0000 
     17 H17         5.3419   -1.7132   -4.6365 H         1 UNK         0.0000 
     18 C18         6.9035   -1.8873   -3.2452 C.3       1 UNK         0.0000 
     19 O19         7.2529   -2.1634   -1.9086 O.3       1 UNK         0.0000 
     20 N20         4.7878   -0.4789   -3.1461 N.am      1 UNK         0.0000 
     21 C21         4.4473   -0.1018   -1.8991 C.2       1 UNK         0.0000 
     22 O22         4.8213   -0.7198   -0.9048 O.2       1 UNK         0.0000 
     23 C23         3.4813    1.0759   -1.8045 C.ar      1 UNK         0.0000 
     24 C24         2.4224    1.1059   -0.8582 C.ar      1 UNK         0.0000 
     25 O25         2.1679    0.1072   -0.0863 O.co2     1 UNK         0.0000 
     26 C26         1.5632    2.2180   -0.7970 C.ar      1 UNK         0.0000 
     27 O27         0.4654    2.1937    0.0416 O.3       1 UNK         0.0000 
     28 C28         1.7336    3.2961   -1.6756 C.ar      1 UNK         0.0000 
     29 C29         2.7465    3.2543   -2.6246 C.ar      1 UNK         0.0000 
     30 C30         3.6034    2.1587   -2.7013 C.ar      1 UNK         0.0000 
     31 H31        -1.4847   -5.8896   -0.2383 H         1 UNK         0.0000 
     32 H32        -2.8130   -6.9355    1.5156 H         1 UNK         0.0000 
     33 H33        -3.4819   -5.6690    3.5221 H         1 UNK         0.0000 
     34 H34        -2.8137   -3.3009    3.7689 H         1 UNK         0.0000 
     35 H35        -0.4228   -4.9366   -1.4715 H         1 UNK         0.0000 
     36 H36         0.2321   -3.7790   -3.4552 H         1 UNK         0.0000 
     37 H37         0.6065   -2.3559   -2.5629 H         1 UNK         0.0000 
     38 H38         2.5206   -3.6552   -1.4319 H         1 UNK         0.0000 
     39 H39         2.3187   -4.8751   -2.6858 H         1 UNK         0.0000 
     40 H40         2.6909   -1.9145   -3.3261 H         1 UNK         0.0000 
     41 H41         2.8609   -3.2379   -4.4606 H         1 UNK         0.0000 
     42 H42         4.9852   -3.8952   -3.5748 H         1 UNK         0.0000 
     43 H43         4.6992   -3.1278   -2.0265 H         1 UNK         0.0000 
     44 H44         7.3213   -2.6860   -3.8665 H         1 UNK         0.0000 
     45 H45         7.4135   -0.9709   -3.5460 H         1 UNK         0.0000 
     46 H46         8.1264   -1.7811   -1.7464 H         1 UNK         0.0000 
     47 H47         4.4162    0.0959   -3.8880 H         1 UNK         0.0000 
     48 H48         0.0177    3.0518    0.0472 H         1 UNK         0.0000 
     49 H49         1.0551    4.1386   -1.6552 H         1 UNK         0.0000 
     50 H50         2.8583    4.0810   -3.3099 H         1 UNK         0.0000 
     51 H51         4.3724    2.1787   -3.4592 H         1 UNK         0.0000 
     52 C52         1.7373   -0.6214    5.2411 C.ar      1 UNK         0.0000 
     53 C53         2.4992   -1.6107    5.8660 C.ar      1 UNK         0.0000 
     54 C54         2.8843   -2.7488    5.1611 C.ar      1 UNK         0.0000 
     55 C55         2.5131   -2.8943    3.8283 C.ar      1 UNK         0.0000 
     56 C56         1.7542   -1.9061    3.1958 C.ar      1 UNK         0.0000 
     57 F57         1.4375   -2.1139    1.9035 F         1 UNK         0.0000 
     58 C58         1.3350   -0.7505    3.8948 C.ar      1 UNK         0.0000 
     59 C59         0.4956    0.3170    3.2163 C.2       1 UNK         0.0000 
     60 O60         0.1974    0.2433    2.0065 O.co2     1 UNK         0.0000 
     61 N61         0.0784    1.3748    3.9541 N.am      1 UNK         0.0000 
     62 C62        -0.6885    2.5126    3.4390 C.3       1 UNK         0.0000 
     63 C63        -2.1886    2.4539    3.8105 C.3       1 UNK         0.0000 
     64 C64        -3.0463    3.4220    2.9579 C.3       1 UNK         0.0000 
     65 C65        -4.5641    3.1115    3.0209 C.3       1 UNK         0.0000 
     66 C66        -5.3904    3.5620    1.7793 C.3       1 UNK         0.0000 
     67 H67        -5.3480    4.6565    1.7405 H         1 UNK         0.0000 
     68 C68        -6.9120    3.2632    1.9014 C.3       1 UNK         0.0000 
     69 O69        -7.2688    1.9396    2.2307 O.3       1 UNK         0.0000 
     70 N70        -4.7849    3.1610    0.4948 N.am      1 UNK         0.0000 
     71 C71        -4.4625    1.9103    0.1099 C.2       1 UNK         0.0000 
     72 O72        -4.8969    0.9276    0.7066 O.2       1 UNK         0.0000 
     73 C73        -3.4585    1.8006   -1.0362 C.ar      1 UNK         0.0000 
     74 C74        -2.3880    0.8615   -1.0320 C.ar      1 UNK         0.0000 
     75 O75        -2.1498    0.1298   -0.0010 O.co2     1 UNK         0.0000 
     76 C76        -1.5168    0.7733   -2.1472 C.ar      1 UNK         0.0000 
     77 O77        -0.5227   -0.0350   -2.1893 O.co2     1 UNK         0.0000 
     78 C78        -1.6810    1.6366   -3.2300 C.ar      1 UNK         0.0000 
     79 C79        -2.7009    2.5859   -3.2202 C.ar      1 UNK         0.0000 
     80 C80        -3.5744    2.6741   -2.1370 C.ar      1 UNK         0.0000 
     81 H81         1.4660    0.2397    5.8337 H         1 UNK         0.0000 
     82 H82         2.7857   -1.4916    6.9022 H         1 UNK         0.0000 
     83 H83         3.4707   -3.5150    5.6591 H         1 UNK         0.0000 
     84 H84         2.8169   -3.7801    3.2872 H         1 UNK         0.0000 
     85 H85         0.3603    1.4363    4.9208 H         1 UNK         0.0000 
     86 H86        -0.2268    3.4513    3.7663 H         1 UNK         0.0000 
     87 H87        -0.6199    2.5419    2.3517 H         1 UNK         0.0000 
     88 H88        -2.5352    1.4233    3.6516 H         1 UNK         0.0000 
     89 H89        -2.3019    2.6763    4.8769 H         1 UNK         0.0000 
     90 H90        -2.7070    3.3343    1.9201 H         1 UNK         0.0000 
     91 H91        -2.8594    4.4595    3.2555 H         1 UNK         0.0000 
     92 H92        -4.9884    3.5754    3.9166 H         1 UNK         0.0000 
     93 H93        -4.7084    2.0360    3.1355 H         1 UNK         0.0000 
     94 H94        -7.3432    3.9112    2.6755 H         1 UNK         0.0000 
     95 H95        -7.4143    3.5323    0.9716 H         1 UNK         0.0000 
     96 H96        -8.0802    1.7301    1.7422 H         1 UNK         0.0000 
     97 H97        -4.5062    3.9109   -0.1177 H         1 UNK         0.0000 
     98 H98        -1.0056    1.5816   -4.0763 H         1 UNK         0.0000 
     99 H99        -2.8096    3.2611   -4.0598 H         1 UNK         0.0000 
    100 H100       -4.3487    3.4298   -2.1806 H         1 UNK         0.0000 
@<TRIPOS>BOND
     1    1   10 nc   
     2    1   25 nc   
     3    1   27 nc   
     4    1   60 nc   
     5    1   75 nc   
     6    1   77 nc   
     7    2    8 ar   
     8    2    3 ar   
     9    2   31 1    
    10    3    4 ar   
    11    3   32 1    
    12    4    5 ar   
    13    4   33 1    
    14    5   34 1    
    15    5    6 ar   
    16    6    7 1    
    17    6    8 ar   
    18    8    9 1    
    19    9   10 2    
    20    9   11 am   BACKBONE|DICT|INTERRES
    21   11   12 1    
    22   11   35 1    
    23   12   13 1    
    24   12   37 1    
    25   12   36 1    
    26   13   38 1    
    27   13   14 1    
    28   13   39 1    
    29   14   40 1    
    30   14   15 1    
    31   14   41 1    
    32   15   43 1    
    33   15   16 1    
    34   15   42 1    
    35   16   17 1    
    36   16   20 1    
    37   16   18 1    
    38   18   19 1    
    39   18   44 1    
    40   18   45 1    
    41   19   46 1    
    42   20   21 am   BACKBONE|DICT|INTERRES
    43   20   47 1    
    44   21   23 1    
    45   21   22 2    
    46   23   24 ar   
    47   23   30 ar   
    48   24   26 ar   
    49   24   25 1    
    50   26   27 1    
    51   26   28 ar   
    52   27   48 1    
    53   28   49 1    
    54   28   29 ar   
    55   29   30 ar   
    56   29   50 1    
    57   30   51 1    
    58   52   53 ar   
    59   52   81 1    
    60   52   58 ar   
    61   53   82 1    
    62   53   54 ar   
    63   54   83 1    
    64   54   55 ar   
    65   55   56 ar   
    66   55   84 1    
    67   56   58 ar   
    68   56   57 1    
    69   58   59 1    
    70   59   60 2    
    71   59   61 am   BACKBONE|DICT|INTERRES
    72   61   85 1    
    73   61   62 1    
    74   62   86 1    
    75   62   63 1    
    76   62   87 1    
    77   63   89 1    
    78   63   64 1    
    79   63   88 1    
    80   64   65 1    
    81   64   91 1    
    82   64   90 1    
    83   65   93 1    
    84   65   92 1    
    85   65   66 1    
    86   66   68 1    
    87   66   67 1    
    88   66   70 1    
    89   68   94 1    
    90   68   69 1    
    91   68   95 1    
    92   69   96 1    
    93   70   71 am   BACKBONE|DICT|INTERRES
    94   70   97 1    
    95   71   72 2    
    96   71   73 1    
    97   73   74 ar   
    98   73   80 ar   
    99   74   75 1    
   100   74   76 ar   
   101   76   77 1    
   102   76   78 ar   
   103   78   79 ar   
   104   78   98 1    
   105   79   80 ar   
   106   79   99 1    
   107   80  100 1    
@<TRIPOS>SUBSTRUCTURE
     1 UNK         1 GROUP             0       ****    0 ROOT    
@<TRIPOS>MOLECULE
185_J11_c1
99   106    1
SMALL
USER_CHARGES


@<TRIPOS>ATOM
      1 Fe1        -0.0405    0.0434   -0.1095 Fe        1 UNK         0.0000 
      2 C2         -1.4615   -4.5053    1.6724 C.ar      1 UNK         0.0000 
      3 C3         -2.0925   -5.6685    2.1147 C.ar      1 UNK         0.0000 
      4 C4         -1.5639   -6.9168    1.8134 C.ar      1 UNK         0.0000 
      5 C5         -0.3946   -7.0027    1.0699 C.ar      1 UNK         0.0000 
      6 C6          0.2635   -5.8555    0.6396 C.ar      1 UNK         0.0000 
      7 F7          1.4533   -6.0453   -0.0003 F         1 UNK         0.0000 
      8 C8         -0.2760   -4.5672    0.9131 C.ar      1 UNK         0.0000 
      9 C9          0.4888   -3.2711    0.5645 C.3       1 UNK         0.0000 
     10 O10        -0.2493   -2.1248    0.2870 O.co2     1 UNK         0.0000 
     11 N11         1.3563   -3.4126   -0.5807 N.3       1 UNK         0.0000 
     12 C12         1.7161   -2.3601   -1.5288 C.3       1 UNK         0.0000 
     13 H13         2.4353   -2.9029   -2.1388 H         1 UNK         0.0000 
     14 C14         2.7244   -1.2264   -1.0041 C.3       1 UNK         0.0000 
     15 O15         2.1884   -0.2026   -0.2083 O.co2     1 UNK         0.0000 
     16 C16         0.5371   -2.1409   -2.6100 C.3       1 UNK         0.0000 
     17 C17        -1.0756   -1.7393   -2.4564 C.3       1 UNK         0.0000 
     18 C18        -2.0483   -0.3966   -2.7118 C.3       1 UNK         0.0000 
     19 C19        -1.8091    1.1470   -3.1836 C.3       1 UNK         0.0000 
     20 N20        -2.1639    2.3632   -2.4042 N.3       1 UNK         0.0000 
     21 C21        -1.5464    2.9620   -1.2160 C.3       1 UNK         0.0000 
     22 O22        -0.5409    2.1932   -0.5770 O.co2     1 UNK         0.0000 
     23 C23        -1.4967    4.5434   -1.1206 C.ar      1 UNK         0.0000 
     24 C24        -0.9020    5.2720   -0.0439 C.ar      1 UNK         0.0000 
     25 F25         0.1389    4.8423    0.6907 F         1 UNK         0.0000 
     26 C26        -1.3251    6.5503    0.3063 C.ar      1 UNK         0.0000 
     27 C27        -2.1533    7.2720   -0.5314 C.ar      1 UNK         0.0000 
     28 C28        -2.5409    6.7007   -1.7447 C.ar      1 UNK         0.0000 
     29 C29        -2.2296    5.3553   -2.0289 C.ar      1 UNK         0.0000 
     30 H30        -1.8873   -3.5433    1.9305 H         1 UNK         0.0000 
     31 H31        -2.9897   -5.6068    2.7001 H         1 UNK         0.0000 
     32 H32        -2.0473   -7.8222    2.1448 H         1 UNK         0.0000 
     33 H33         0.0273   -7.9726    0.8432 H         1 UNK         0.0000 
     34 H34         2.2088   -3.7698   -0.1964 H         1 UNK         0.0000 
     35 H35         3.5351   -1.7344   -0.4754 H         1 UNK         0.0000 
     36 H36         3.2312   -0.8287   -1.8873 H         1 UNK         0.0000 
     37 H37         1.0363   -1.7178   -3.4614 H         1 UNK         0.0000 
     38 H38         0.4450   -3.1739   -2.9545 H         1 UNK         0.0000 
     39 H39        -1.4633   -2.3827   -3.2460 H         1 UNK         0.0000 
     40 H40        -1.5474   -2.2825   -1.6318 H         1 UNK         0.0000 
     41 H41        -2.8376   -0.3748   -1.9641 H         1 UNK         0.0000 
     42 H42        -2.6536   -0.7405   -3.5512 H         1 UNK         0.0000 
     43 H43        -0.9605    1.3375   -3.8180 H         1 UNK         0.0000 
     44 H44        -2.5594    1.2859   -3.9691 H         1 UNK         0.0000 
     45 H45        -3.1077    2.2287   -2.0728 H         1 UNK         0.0000 
     46 H46        -0.9534    7.0081    1.2178 H         1 UNK         0.0000 
     47 H47        -2.4438    8.2769   -0.2779 H         1 UNK         0.0000 
     48 H48        -3.0901    7.3170   -2.4513 H         1 UNK         0.0000 
     49 H49        -2.6087    4.9159   -2.9518 H         1 UNK         0.0000 
     50 C50         1.4956   -1.6977    4.3473 C.ar      1 UNK         0.0000 
     51 C51         2.0344   -2.2813    5.4975 C.ar      1 UNK         0.0000 
     52 C52         1.4764   -2.0282    6.7532 C.ar      1 UNK         0.0000 
     53 C53         0.3668   -1.2020    6.8549 C.ar      1 UNK         0.0000 
     54 C54        -0.1837   -0.6257    5.7220 C.ar      1 UNK         0.0000 
     55 F55        -1.2796    0.1480    5.9167 F         1 UNK         0.0000 
     56 C56         0.3903   -0.8447    4.4361 C.ar      1 UNK         0.0000 
     57 C57        -0.1549   -0.1672    3.1904 C.2       1 UNK         0.0000 
     58 O58         0.3501   -0.1063    2.0466 O.co2     1 UNK         0.0000 
     59 N59        -1.2553    0.5361    3.3708 N.am      1 UNK         0.0000 
     60 C60        -1.7648    1.5015    2.4329 C.3       1 UNK         0.0000 
     61 H61        -2.4900    2.0444    3.0494 H         1 UNK         0.0000 
     62 C62        -2.7494    0.7975    1.3958 C.3       1 UNK         0.0000 
     63 O63        -2.2347    0.0649    0.2967 O.co2     1 UNK         0.0000 
     64 C64        -0.6707    2.6384    2.1146 C.3       1 UNK         0.0000 
     65 C65         0.9710    2.5716    1.8425 C.3       1 UNK         0.0000 
     66 C66         2.0219    2.6475    0.5498 C.3       1 UNK         0.0000 
     67 C67         1.8947    3.0800   -1.0063 C.3       1 UNK         0.0000 
     68 N68         2.0534    2.1686   -2.2040 N.am      1 UNK         0.0000 
     69 C69         1.2991    1.2192   -2.8267 C.2       1 UNK         0.0000 
     70 O70         0.5012    0.4219   -2.2265 O.co2     1 UNK         0.0000 
     71 C71         1.5457    1.0619   -4.3633 C.ar      1 UNK         0.0000 
     72 C72         0.9200    0.0603   -5.1655 C.ar      1 UNK         0.0000 
     73 F73        -0.2240   -0.5659   -4.8226 F         1 UNK         0.0000 
     74 C74         1.3925   -0.2870   -6.4240 C.ar      1 UNK         0.0000 
     75 C75         2.3080    0.5400   -7.0663 C.ar      1 UNK         0.0000 
     76 C76         2.7263    1.7157   -6.4403 C.ar      1 UNK         0.0000 
     77 C77         2.3768    1.9650   -5.0963 C.ar      1 UNK         0.0000 
     78 H78         1.9361   -1.9110    3.3820 H         1 UNK         0.0000 
     79 H79         2.8876   -2.9328    5.4302 H         1 UNK         0.0000 
     80 H80         1.9066   -2.4505    7.6535 H         1 UNK         0.0000 
     81 H81        -0.0782   -1.0061    7.8144 H         1 UNK         0.0000 
     82 H82        -1.8482    0.2750    4.1326 H         1 UNK         0.0000 
     83 H83        -3.4403    0.1552    1.9385 H         1 UNK         0.0000 
     84 H84        -3.3966    1.5932    1.0588 H         1 UNK         0.0000 
     85 H85        -1.2047    3.3836    1.5709 H         1 UNK         0.0000 
     86 H86        -0.6479    3.1213    3.0893 H         1 UNK         0.0000 
     87 H87         1.2537    3.4890    2.3609 H         1 UNK         0.0000 
     88 H88         1.4519    1.8622    2.5310 H         1 UNK         0.0000 
     89 H89         2.7879    1.8647    0.6492 H         1 UNK         0.0000 
     90 H90         2.6531    3.4729    0.8810 H         1 UNK         0.0000 
     91 H91         1.1246    3.8309   -1.1857 H         1 UNK         0.0000 
     92 H92         2.7974    3.6637   -1.1964 H         1 UNK         0.0000 
     93 H93         2.9078    2.3102   -2.7069 H         1 UNK         0.0000 
     94 H94         0.9911   -1.1499   -6.9400 H         1 UNK         0.0000 
     95 H95         2.5895    0.3147   -8.0941 H         1 UNK         0.0000 
     96 H96         3.3201    2.4085   -7.0308 H         1 UNK         0.0000 
     97 H97         2.7550    2.8704   -4.6431 H         1 UNK         0.0000 
     98 H98         1.1268   -3.0840    1.3973 H         1 UNK         0.0000 
     99 H99        -2.3864    2.8621   -0.5487 H         1 UNK         0.0000 
@<TRIPOS>BOND
     1    1   10 nc   
     2    1   15 nc   
     3    1   22 nc   
     4    1   58 nc   
     5    1   63 nc   
     6    1   70 nc   
     7    2   30 1    
     8    2    3 ar   
     9    2    8 ar   
    10    3   31 1    
    11    3    4 ar   
    12    4   32 1    
    13    4    5 ar   
    14    5    6 ar   
    15    5   33 1    
    16    6    8 ar   
    17    6    7 1    
    18    8    9 1    
    19    9   10 1    
    20    9   11 1    
    21    9   98 1    
    22   11   34 1    
    23   11   12 1    
    24   12   13 1    
    25   12   14 1    
    26   12   16 1    
    27   14   35 1    
    28   14   15 1    
    29   14   36 1    
    30   16   17 1    
    31   16   37 1    
    32   16   38 1    
    33   17   18 1    
    34   17   40 1    
    35   17   39 1    
    36   18   19 1    
    37   18   41 1    
    38   18   42 1    
    39   19   20 1    
    40   19   43 1    
    41   19   44 1    
    42   20   21 1    
    43   20   45 1    
    44   21   23 1    
    45   21   22 1    
    46   21   99 1    
    47   23   24 ar   
    48   23   29 ar   
    49   24   26 ar   
    50   24   25 1    
    51   26   46 1    
    52   26   27 ar   
    53   27   47 1    
    54   27   28 ar   
    55   28   29 ar   
    56   28   48 1    
    57   29   49 1    
    58   50   56 ar   
    59   50   51 ar   
    60   50   78 1    
    61   51   52 ar   
    62   51   79 1    
    63   52   53 ar   
    64   52   80 1    
    65   53   81 1    
    66   53   54 ar   
    67   54   55 1    
    68   54   56 ar   
    69   56   57 1    
    70   57   59 am   BACKBONE|DICT|INTERRES
    71   57   58 2    
    72   59   82 1    
    73   59   60 1    
    74   60   64 1    
    75   60   61 1    
    76   60   62 1    
    77   62   83 1    
    78   62   63 1    
    79   62   84 1    
    80   64   86 1    
    81   64   65 1    
    82   64   85 1    
    83   65   87 1    
    84   65   88 1    
    85   65   66 1    
    86   66   89 1    
    87   66   90 1    
    88   66   67 1    
    89   67   68 1    
    90   67   91 1    
    91   67   92 1    
    92   68   69 am   BACKBONE|DICT|INTERRES
    93   68   93 1    
    94   69   71 1    
    95   69   70 2    
    96   71   72 ar   
    97   71   77 ar   
    98   72   73 1    
    99   72   74 ar   
   100   74   75 ar   
   101   74   94 1    
   102   75   76 ar   
   103   75   95 1    
   104   76   77 ar   
   105   76   96 1    
   106   77   97 1    
@<TRIPOS>SUBSTRUCTURE
     1 UNK         1 GROUP             0       ****    0 ROOT    
@<TRIPOS>MOLECULE
185_J13_c1
99   106    1
SMALL
USER_CHARGES


@<TRIPOS>ATOM
      1 Fe1         0.0004    0.1506   -0.1526 Fe        1 UNK         0.0000 
      2 C2         -2.2953   -5.0690   -0.2480 C.ar      1 UNK         0.0000 
      3 C3         -3.3357   -5.7502    0.3779 C.ar      1 UNK         0.0000 
      4 C4         -3.9030   -5.2420    1.5398 C.ar      1 UNK         0.0000 
      5 C5         -3.4062   -4.0623    2.0886 C.ar      1 UNK         0.0000 
      6 C6         -2.3461   -3.3846    1.4924 C.ar      1 UNK         0.0000 
      7 Cl7        -1.7850   -1.9982    2.3683 Cl        1 UNK         0.0000 
      8 C8         -1.7823   -3.8603    0.2790 C.ar      1 UNK         0.0000 
      9 C9         -0.6550   -3.1203   -0.4422 C.2       1 UNK         0.0000 
     10 O10        -0.3424   -1.9538   -0.1739 O.co2     1 UNK         0.0000 
     11 N11         0.0268   -3.8177   -1.3646 N.am      1 UNK         0.0000 
     12 C12         1.2066   -3.3351   -2.1030 C.3       1 UNK         0.0000 
     13 C13         2.3893   -4.3258   -2.0107 C.3       1 UNK         0.0000 
     14 C14         3.7643   -3.6727   -2.2732 C.3       1 UNK         0.0000 
     15 C15         3.9887   -3.1769   -3.7271 C.3       1 UNK         0.0000 
     16 C16         4.9217   -1.9440   -3.8969 C.3       1 UNK         0.0000 
     17 H17         4.9385   -1.7255   -4.9662 H         1 UNK         0.0000 
     18 C18         6.4339   -2.1519   -3.5472 C.3       1 UNK         0.0000 
     19 O19         6.6683   -2.7651   -2.2932 O.3       1 UNK         0.0000 
     20 N20         4.2955   -0.7204   -3.3677 N.am      1 UNK         0.0000 
     21 C21         4.3881   -0.1925   -2.1406 C.2       1 UNK         0.0000 
     22 O22         5.2060   -0.5824   -1.2966 O.2       1 UNK         0.0000 
     23 C23         3.4416    0.9732   -1.9301 C.ar      1 UNK         0.0000 
     24 C24         2.4139    0.9616   -0.9504 C.ar      1 UNK         0.0000 
     25 O25         2.1708   -0.0956   -0.2699 O.co2     1 UNK         0.0000 
     26 C26         1.5942    2.1128   -0.7998 C.ar      1 UNK         0.0000 
     27 O27         0.6833    2.2142    0.0797 O.co2     1 UNK         0.0000 
     28 C28         1.7258    3.1859   -1.6695 C.ar      1 UNK         0.0000 
     29 C29         2.6767    3.1627   -2.6815 C.ar      1 UNK         0.0000 
     30 C30         3.5385    2.0762   -2.7943 C.ar      1 UNK         0.0000 
     31 H31        -1.9040   -5.4928   -1.1610 H         1 UNK         0.0000 
     32 H32        -3.7179   -6.6656   -0.0463 H         1 UNK         0.0000 
     33 H33        -4.7239   -5.7510    2.0219 H         1 UNK         0.0000 
     34 H34        -3.8457   -3.6614    2.9901 H         1 UNK         0.0000 
     35 H35        -0.3893   -4.6811   -1.6563 H         1 UNK         0.0000 
     36 H36         1.5311   -2.3697   -1.7075 H         1 UNK         0.0000 
     37 H37         0.9298   -3.1217   -3.1346 H         1 UNK         0.0000 
     38 H38         2.2326   -5.1542   -2.7027 H         1 UNK         0.0000 
     39 H39         2.4145   -4.7587   -1.0094 H         1 UNK         0.0000 
     40 H40         4.5522   -4.3782   -2.0172 H         1 UNK         0.0000 
     41 H41         3.8817   -2.8507   -1.5668 H         1 UNK         0.0000 
     42 H42         3.0272   -2.9054   -4.1643 H         1 UNK         0.0000 
     43 H43         4.3546   -3.9955   -4.3513 H         1 UNK         0.0000 
     44 H44         6.9631   -1.1962   -3.5658 H         1 UNK         0.0000 
     45 H45         6.9168   -2.7526   -4.3165 H         1 UNK         0.0000 
     46 H46         6.2317   -2.2072   -1.6322 H         1 UNK         0.0000 
     47 H47         3.5490   -0.3096   -3.9024 H         1 UNK         0.0000 
     48 H48         1.0585    4.0385   -1.5828 H         1 UNK         0.0000 
     49 H49         2.7498    3.9828   -3.3731 H         1 UNK         0.0000 
     50 H50         4.2976    2.0814   -3.5635 H         1 UNK         0.0000 
     51 C51         2.3070    0.2461    5.0575 C.ar      1 UNK         0.0000 
     52 C52         3.3518   -0.3779    5.7344 C.ar      1 UNK         0.0000 
     53 C53         3.9161   -1.5410    5.2253 C.ar      1 UNK         0.0000 
     54 C54         3.4126   -2.0923    4.0502 C.ar      1 UNK         0.0000 
     55 C55         2.3481   -1.4982    3.3768 C.ar      1 UNK         0.0000 
     56 Cl56        1.7779   -2.3776    1.9971 Cl        1 UNK         0.0000 
     57 C57         1.7874   -0.2831    3.8544 C.ar      1 UNK         0.0000 
     58 C58         0.6557    0.4354    3.1167 C.2       1 UNK         0.0000 
     59 O59         0.3411    0.1686    1.9532 O.co2     1 UNK         0.0000 
     60 N60        -0.0246    1.3583    3.8178 N.am      1 UNK         0.0000 
     61 C61        -1.2031    2.0992    3.3358 C.3       1 UNK         0.0000 
     62 C62        -2.3859    2.0086    4.3268 C.3       1 UNK         0.0000 
     63 C63        -3.7603    2.2740    3.6736 C.3       1 UNK         0.0000 
     64 C64        -3.9823    3.7289    3.1791 C.3       1 UNK         0.0000 
     65 C65        -4.9138    3.9016    1.9455 C.3       1 UNK         0.0000 
     66 H66        -4.9287    4.9710    1.7280 H         1 UNK         0.0000 
     67 C67        -6.4265    3.5537    2.1515 C.3       1 UNK         0.0000 
     68 O68        -6.6636    2.2997    2.7636 O.3       1 UNK         0.0000 
     69 N69        -4.2867    3.3736    0.7222 N.am      1 UNK         0.0000 
     70 C70        -4.3818    2.1473    0.1912 C.2       1 UNK         0.0000 
     71 O71        -5.2015    1.3047    0.5786 O.2       1 UNK         0.0000 
     72 C72        -3.4347    1.9378   -0.9740 C.ar      1 UNK         0.0000 
     73 C73        -2.4100    0.9547   -0.9643 C.ar      1 UNK         0.0000 
     74 O74        -2.1704    0.2704    0.0915 O.co2     1 UNK         0.0000 
     75 C75        -1.5897    0.8046   -2.1153 C.ar      1 UNK         0.0000 
     76 O76        -0.6805   -0.0759   -2.2163 O.co2     1 UNK         0.0000 
     77 C77        -1.7179    1.6779   -3.1862 C.ar      1 UNK         0.0000 
     78 C78        -2.6652    2.6926   -3.1611 C.ar      1 UNK         0.0000 
     79 C79        -3.5279    2.8054   -2.0749 C.ar      1 UNK         0.0000 
     80 H80         1.9183    1.1607    5.4816 H         1 UNK         0.0000 
     81 H81         3.7394    0.0480    6.6464 H         1 UNK         0.0000 
     82 H82         4.7404   -2.0216    5.7306 H         1 UNK         0.0000 
     83 H83         3.8494   -2.9951    3.6488 H         1 UNK         0.0000 
     84 H84         0.3928    1.6484    4.6804 H         1 UNK         0.0000 
     85 H85        -1.5289    1.7056    2.3700 H         1 UNK         0.0000 
     86 H86        -0.9243    3.1306    3.1233 H         1 UNK         0.0000 
     87 H87        -2.2280    2.6998    5.1556 H         1 UNK         0.0000 
     88 H88        -2.4128    1.0069    4.7590 H         1 UNK         0.0000 
     89 H89        -4.5488    2.0185    4.3787 H         1 UNK         0.0000 
     90 H90        -3.8788    1.5686    2.8509 H         1 UNK         0.0000 
     91 H91        -3.0199    4.1652    2.9094 H         1 UNK         0.0000 
     92 H92        -4.3485    4.3524    3.9982 H         1 UNK         0.0000 
     93 H93        -6.9545    3.5736    1.1952 H         1 UNK         0.0000 
     94 H94        -6.9089    4.3236    2.7520 H         1 UNK         0.0000 
     95 H95        -6.2284    1.6382    2.2046 H         1 UNK         0.0000 
     96 H96        -3.5387    3.9067    0.3135 H         1 UNK         0.0000 
     97 H97        -1.0498    1.5913   -4.0383 H         1 UNK         0.0000 
     98 H98        -2.7350    3.3870   -3.9794 H         1 UNK         0.0000 
     99 H99        -4.2844    3.5771   -2.0784 H         1 UNK         0.0000 
@<TRIPOS>BOND
     1    1   10 nc   
     2    1   25 nc   
     3    1   27 nc   
     4    1   59 nc   
     5    1   74 nc   
     6    1   76 nc   
     7    2    8 ar   
     8    2    3 ar   
     9    2   31 1    
    10    3    4 ar   
    11    3   32 1    
    12    4    5 ar   
    13    4   33 1    
    14    5   34 1    
    15    5    6 ar   
    16    6    7 1    
    17    6    8 ar   
    18    8    9 1    
    19    9   10 2    
    20    9   11 am   BACKBONE|DICT|INTERRES
    21   11   12 1    
    22   11   35 1    
    23   12   13 1    
    24   12   36 1    
    25   12   37 1    
    26   13   39 1    
    27   13   14 1    
    28   13   38 1    
    29   14   40 1    
    30   14   41 1    
    31   14   15 1    
    32   15   16 1    
    33   15   42 1    
    34   15   43 1    
    35   16   17 1    
    36   16   20 1    
    37   16   18 1    
    38   18   19 1    
    39   18   44 1    
    40   18   45 1    
    41   19   46 1    
    42   20   21 am   BACKBONE|DICT|INTERRES
    43   20   47 1    
    44   21   23 1    
    45   21   22 2    
    46   23   24 ar   
    47   23   30 ar   
    48   24   26 ar   
    49   24   25 1    
    50   26   27 1    
    51   26   28 ar   
    52   28   48 1    
    53   28   29 ar   
    54   29   30 ar   
    55   29   49 1    
    56   30   50 1    
    57   51   80 1    
    58   51   52 ar   
    59   51   57 ar   
    60   52   81 1    
    61   52   53 ar   
    62   53   82 1    
    63   53   54 ar   
    64   54   55 ar   
    65   54   83 1    
    66   55   57 ar   
    67   55   56 1    
    68   57   58 1    
    69   58   59 2    
    70   58   60 am   BACKBONE|DICT|INTERRES
    71   60   84 1    
    72   60   61 1    
    73   61   62 1    
    74   61   85 1    
    75   61   86 1    
    76   62   88 1    
    77   62   87 1    
    78   62   63 1    
    79   63   89 1    
    80   63   64 1    
    81   63   90 1    
    82   64   92 1    
    83   64   65 1    
    84   64   91 1    
    85   65   66 1    
    86   65   67 1    
    87   65   69 1    
    88   67   68 1    
    89   67   94 1    
    90   67   93 1    
    91   68   95 1    
    92   69   70 am   BACKBONE|DICT|INTERRES
    93   69   96 1    
    94   70   71 2    
    95   70   72 1    
    96   72   73 ar   
    97   72   79 ar   
    98   73   74 1    
    99   73   75 ar   
   100   75   76 1    
   101   75   77 ar   
   102   77   78 ar   
   103   77   97 1    
   104   78   79 ar   
   105   78   98 1    
   106   79   99 1    
@<TRIPOS>SUBSTRUCTURE
     1 UNK         1 GROUP             0       ****    0 ROOT    
@<TRIPOS>MOLECULE
190_A_c1
101   107    1
SMALL
USER_CHARGES


@<TRIPOS>ATOM
      1 Fe1         0.0930    0.2368   -1.4570 Fe        1 UNK         0.0000 
      2 C2         -3.5985   -6.5489    0.5289 C.ar      1 UNK         0.0000 
      3 C3         -4.6456   -7.3042    1.0607 C.ar      1 UNK         0.0000 
      4 C4         -5.7234   -6.6634    1.6631 C.ar      1 UNK         0.0000 
      5 C5         -5.7638   -5.2774    1.7520 C.ar      1 UNK         0.0000 
      6 C6         -4.7208   -4.5250    1.2246 C.ar      1 UNK         0.0000 
      7 C7         -3.6308   -5.1535    0.5901 C.ar      1 UNK         0.0000 
      8 C8         -2.5380   -4.3873   -0.0524 C.2       1 UNK         0.0000 
      9 C9         -2.4402   -3.0368    0.0117 C.2       1 UNK         0.0000 
     10 C10        -1.4594   -2.1925   -0.6151 C.2       1 UNK         0.0000 
     11 O11        -1.6742   -0.9847   -0.7506 O.co2     1 UNK         0.0000 
     12 N12        -0.2574   -2.5945   -1.1074 N.am      1 UNK         0.0000 
     13 O13         0.4233   -1.6656   -1.7539 O.co2     1 UNK         0.0000 
     14 C14         0.5400   -3.7901   -0.7326 C.3       1 UNK         0.0000 
     15 C15         2.0605   -3.5511   -0.4711 C.3       1 UNK         0.0000 
     16 C16         2.3684   -2.5134    0.6301 C.3       1 UNK         0.0000 
     17 C17         3.7933   -1.8709    0.5851 C.3       1 UNK         0.0000 
     18 C18         3.8272   -0.3361    0.8800 C.3       1 UNK         0.0000 
     19 H19         4.8134   -0.1146    1.2581 H         1 UNK         0.0000 
     20 C20         3.4620    0.4700   -0.3889 C.2       1 UNK         0.0000 
     21 O21         2.3741    0.3066   -0.9656 O.co2     1 UNK         0.0000 
     22 O22         4.3976    1.3120   -0.9207 O.3       1 UNK         0.0000 
     23 C23         5.7449    1.4470   -0.4907 C.3       1 UNK         0.0000 
     24 N24         2.9550   -0.0952    2.0528 N.am      1 UNK         0.0000 
     25 C25         2.4733    0.9575    2.7330 C.2       1 UNK         0.0000 
     26 O26         1.9424    0.7195    3.8126 O.2       1 UNK         0.0000 
     27 C27         2.6210    2.4212    2.2638 C.3       1 UNK         0.0000 
     28 C28         1.3195    3.1508    1.7676 C.3       1 UNK         0.0000 
     29 O29         0.3210    2.9379    2.7741 O.3       1 UNK         0.0000 
     30 C30         0.9049    2.5017    0.3971 C.2       1 UNK         0.0000 
     31 O31         0.2584    1.4198    0.3580 O.co2     1 UNK         0.0000 
     32 O32         1.4367    2.9225   -0.6484 O.co2     1 UNK         0.0000 
     33 C33         1.5629    4.6891    1.5556 C.3       1 UNK         0.0000 
     34 C34         0.3295    5.5454    1.2208 C.2       1 UNK         0.0000 
     35 O35        -0.6274    5.5512    1.9873 O.2       1 UNK         0.0000 
     36 N36         0.3580    6.3108    0.1072 N.am      1 UNK         0.0000 
     37 C37        -0.6818    7.2466   -0.3956 C.3       1 UNK         0.0000 
     38 H38        -0.2864    7.7073   -1.3033 H         1 UNK         0.0000 
     39 C39        -0.9521    8.3797    0.6219 C.2       1 UNK         0.0000 
     40 O40        -1.5050    8.2199    1.7131 O.2       1 UNK         0.0000 
     41 O41        -0.5517    9.5935    0.1641 O.3       1 UNK         0.0000 
     42 C42        -0.7389   10.7395    0.9965 C.3       1 UNK         0.0000 
     43 C43        -2.0173    6.5338   -0.7846 C.3       1 UNK         0.0000 
     44 C44        -2.0346    5.6537   -2.0641 C.3       1 UNK         0.0000 
     45 C45        -1.1593    4.3853   -2.0403 C.3       1 UNK         0.0000 
     46 C46        -1.3642    3.4561   -3.2688 C.3       1 UNK         0.0000 
     47 N47        -0.7219    2.1359   -3.1127 N.am      1 UNK         0.0000 
     48 O48        -0.9412    1.4856   -1.9735 O.co2     1 UNK         0.0000 
     49 C49         0.2889    1.5810   -3.8473 C.2       1 UNK         0.0000 
     50 O50         0.7503    0.6021   -3.2305 O.co2     1 UNK         0.0000 
     51 C51         0.7281    2.0377   -5.1378 C.2       1 UNK         0.0000 
     52 C52         1.6153    1.2845   -5.8314 C.2       1 UNK         0.0000 
     53 C53         2.1552    1.5115   -7.1882 C.ar      1 UNK         0.0000 
     54 C54         1.7789    2.6023   -7.9837 C.ar      1 UNK         0.0000 
     55 C55         2.2681    2.7326   -9.2835 C.ar      1 UNK         0.0000 
     56 C56         3.1417    1.7718   -9.7926 C.ar      1 UNK         0.0000 
     57 C57         3.5217    0.6797   -9.0168 C.ar      1 UNK         0.0000 
     58 C58         3.0313    0.5544   -7.7198 C.ar      1 UNK         0.0000 
     59 H59        -2.7691   -7.0544    0.0527 H         1 UNK         0.0000 
     60 H60        -4.6130   -8.3801    0.9919 H         1 UNK         0.0000 
     61 H61        -6.5397   -7.2467    2.0630 H         1 UNK         0.0000 
     62 H62        -6.6005   -4.7789    2.2195 H         1 UNK         0.0000 
     63 H63        -4.8003   -3.4525    1.3083 H         1 UNK         0.0000 
     64 H64         0.1166   -4.2278    0.1717 H         1 UNK         0.0000 
     65 H65         0.4130   -4.5416   -1.5155 H         1 UNK         0.0000 
     66 H66         2.5050   -3.2266   -1.4107 H         1 UNK         0.0000 
     67 H67         2.5275   -4.4986   -0.2191 H         1 UNK         0.0000 
     68 H68         2.2047   -2.9819    1.6062 H         1 UNK         0.0000 
     69 H69         1.6161   -1.7250    0.5715 H         1 UNK         0.0000 
     70 H70         4.3211   -2.1013   -0.3442 H         1 UNK         0.0000 
     71 H71         4.3967   -2.3667    1.3528 H         1 UNK         0.0000 
     72 H72         6.3649    1.5806   -1.3697 H         1 UNK         0.0000 
     73 H73         6.1655    0.5841    0.0170 H         1 UNK         0.0000 
     74 H74         5.8748    2.3252    0.1353 H         1 UNK         0.0000 
     75 H75         2.7717   -0.9461    2.5576 H         1 UNK         0.0000 
     76 H76         2.9661    2.9547    3.1441 H         1 UNK         0.0000 
     77 H77         3.4301    2.5205    1.5446 H         1 UNK         0.0000 
     78 H78         0.4695    3.5372    3.5054 H         1 UNK         0.0000 
     79 H79         2.3120    4.8405    0.7761 H         1 UNK         0.0000 
     80 H80         1.9891    5.1317    2.4512 H         1 UNK         0.0000 
     81 H81         1.1335    6.1723   -0.5183 H         1 UNK         0.0000 
     82 H82        -0.1111   10.6670    1.8866 H         1 UNK         0.0000 
     83 H83        -1.7774   10.8331    1.3262 H         1 UNK         0.0000 
     84 H84        -0.4772   11.6634    0.4788 H         1 UNK         0.0000 
     85 H85        -2.7827    7.2979   -0.9314 H         1 UNK         0.0000 
     86 H86        -2.3745    5.9477    0.0667 H         1 UNK         0.0000 
     87 H87        -1.7884    6.2615   -2.9342 H         1 UNK         0.0000 
     88 H88        -3.0706    5.3314   -2.1975 H         1 UNK         0.0000 
     89 H89        -0.1040    4.6491   -2.0060 H         1 UNK         0.0000 
     90 H90        -1.3845    3.8360   -1.1230 H         1 UNK         0.0000 
     91 H91        -2.4301    3.2644   -3.4259 H         1 UNK         0.0000 
     92 H92        -1.0378    3.9711   -4.1762 H         1 UNK         0.0000 
     93 H93         1.0910    3.3466   -7.6111 H         1 UNK         0.0000 
     94 H94         1.9643    3.5720   -9.8981 H         1 UNK         0.0000 
     95 H95         3.5149    1.8666  -10.8011 H         1 UNK         0.0000 
     96 H96         4.1872   -0.0700   -9.4225 H         1 UNK         0.0000 
     97 H97         3.3263   -0.3090   -7.1388 H         1 UNK         0.0000 
     98 H98         1.9902    0.3800   -5.3642 H         1 UNK         0.0000 
     99 H99         0.3351    2.9652   -5.5235 H         1 UNK         0.0000 
    100 H100       -3.1548   -2.4485    0.5529 H         1 UNK         0.0000 
    101 H101       -1.8098   -4.9675   -0.6048 H         1 UNK         0.0000 
@<TRIPOS>BOND
     1    1   11 nc   
     2    1   13 nc   
     3    1   21 nc   
     4    1   31 nc   
     5    1   48 nc   
     6    1   50 nc   
     7    2    7 ar   
     8    2    3 ar   
     9    2   59 1    
    10    3    4 ar   
    11    3   60 1    
    12    4    5 ar   
    13    4   61 1    
    14    5   62 1    
    15    5    6 ar   
    16    6   63 1    
    17    6    7 ar   
    18    7    8 1    
    19    8    9 2    
    20    8  101 1    
    21    9   10 1    
    22    9  100 1    
    23   10   11 2    
    24   10   12 am   BACKBONE|DICT|INTERRES
    25   12   14 1    
    26   12   13 1    
    27   14   15 1    
    28   14   64 1    
    29   14   65 1    
    30   15   67 1    
    31   15   16 1    
    32   15   66 1    
    33   16   17 1    
    34   16   68 1    
    35   16   69 1    
    36   17   18 1    
    37   17   71 1    
    38   17   70 1    
    39   18   19 1    
    40   18   24 1    
    41   18   20 1    
    42   20   22 1    
    43   20   21 2    
    44   22   23 1    
    45   23   74 1    
    46   23   73 1    
    47   23   72 1    
    48   24   75 1    
    49   24   25 am   BACKBONE|DICT|INTERRES
    50   25   26 2    
    51   25   27 1    
    52   27   76 1    
    53   27   28 1    
    54   27   77 1    
    55   28   29 1    
    56   28   30 1    
    57   28   33 1    
    58   29   78 1    
    59   30   31 1    
    60   30   32 2    
    61   33   80 1    
    62   33   34 1    
    63   33   79 1    
    64   34   35 2    
    65   34   36 am   BACKBONE|DICT|INTERRES
    66   36   37 1    
    67   36   81 1    
    68   37   38 1    
    69   37   39 1    
    70   37   43 1    
    71   39   40 2    
    72   39   41 1    
    73   41   42 1    
    74   42   83 1    
    75   42   82 1    
    76   42   84 1    
    77   43   86 1    
    78   43   44 1    
    79   43   85 1    
    80   44   45 1    
    81   44   87 1    
    82   44   88 1    
    83   45   89 1    
    84   45   90 1    
    85   45   46 1    
    86   46   47 1    
    87   46   91 1    
    88   46   92 1    
    89   47   48 1    
    90   47   49 am   BACKBONE|DICT|INTERRES
    91   49   50 2    
    92   49   51 1    
    93   51   52 2    
    94   51   99 1    
    95   52   53 1    
    96   52   98 1    
    97   53   54 ar   
    98   53   58 ar   
    99   54   93 1    
   100   54   55 ar   
   101   55   56 ar   
   102   55   94 1    
   103   56   57 ar   
   104   56   95 1    
   105   57   58 ar   
   106   57   96 1    
   107   58   97 1    
@<TRIPOS>SUBSTRUCTURE
     1 UNK         1 GROUP             0       ****    0 ROOT    
@<TRIPOS>MOLECULE
191_B_c1
97   103    1
SMALL
USER_CHARGES


@<TRIPOS>ATOM
      1 Fe1        -0.2912   -0.4512   -0.7966 Fe        1 UNK         0.0000 
      2 C2          4.7952   -4.1957    2.7667 C.ar      1 UNK         0.0000 
      3 C3          5.6514   -5.0210    3.4918 C.ar      1 UNK         0.0000 
      4 C4          5.2165   -6.2850    3.8770 C.ar      1 UNK         0.0000 
      5 C5          3.9274   -6.7221    3.5586 C.ar      1 UNK         0.0000 
      6 C6          3.0756   -5.8938    2.8324 C.ar      1 UNK         0.0000 
      7 C7          3.5142   -4.6298    2.4203 C.ar      1 UNK         0.0000 
      8 C8          2.6897   -3.7245    1.6041 C.2       1 UNK         0.0000 
      9 C9          1.4806   -3.9630    1.0510 C.2       1 UNK         0.0000 
     10 C10         0.8319   -2.9488    0.2432 C.2       1 UNK         0.0000 
     11 O11         1.2759   -1.8041    0.0726 O.co2     1 UNK         0.0000 
     12 N12        -0.3026   -3.2052   -0.4478 N.am      1 UNK         0.0000 
     13 O13        -0.6642   -2.3384   -1.3792 O.co2     1 UNK         0.0000 
     14 C14        -1.3529   -4.2068   -0.1331 C.3       1 UNK         0.0000 
     15 C15        -2.7508   -3.5902    0.1718 C.3       1 UNK         0.0000 
     16 C16        -2.7331   -2.6381    1.3833 C.3       1 UNK         0.0000 
     17 C17        -4.0567   -1.8925    1.6737 C.3       1 UNK         0.0000 
     18 C18        -4.5808   -0.7232    0.7573 C.3       1 UNK         0.0000 
     19 H19        -5.4524   -1.1377    0.2515 H         1 UNK         0.0000 
     20 C20        -3.7810   -0.2055   -0.5110 C.2       1 UNK         0.0000 
     21 O21        -4.5176    0.3183   -1.3808 O.co2     1 UNK         0.0000 
     22 O22        -2.5263   -0.2694   -0.5087 O.co2     1 UNK         0.0000 
     23 N23        -5.1231    0.4260    1.5238 N.am      1 UNK         0.0000 
     24 C24        -4.4702    1.3754    2.2234 C.2       1 UNK         0.0000 
     25 O25        -5.0843    2.3363    2.6765 O.2       1 UNK         0.0000 
     26 C26        -2.9664    1.2253    2.4942 C.3       1 UNK         0.0000 
     27 C27        -1.9714    2.3143    1.9471 C.3       1 UNK         0.0000 
     28 O28        -2.3340    2.6835    0.6002 O.3       1 UNK         0.0000 
     29 C29        -0.5753    1.5601    1.9589 C.2       1 UNK         0.0000 
     30 O30        -0.4051    0.6526    1.0911 O.co2     1 UNK         0.0000 
     31 O31         0.2191    1.7204    2.9099 O.co2     1 UNK         0.0000 
     32 C32        -1.9951    3.6119    2.8323 C.3       1 UNK         0.0000 
     33 C33        -1.0153    4.7450    2.4634 C.2       1 UNK         0.0000 
     34 O34        -0.2052    5.1620    3.2902 O.2       1 UNK         0.0000 
     35 N35        -1.1502    5.2742    1.2337 N.am      1 UNK         0.0000 
     36 C36        -0.2281    6.1480    0.4655 C.3       1 UNK         0.0000 
     37 H37        -0.8686    6.6750   -0.2424 H         1 UNK         0.0000 
     38 C38         0.5168    7.2227    1.2854 C.2       1 UNK         0.0000 
     39 O39         1.6484    7.0781    1.7570 O.2       1 UNK         0.0000 
     40 O40        -0.1281    8.4062    1.2863 O.3       1 UNK         0.0000 
     41 C41         0.4615    9.5347    1.9155 C.3       1 UNK         0.0000 
     42 C42         0.7495    5.3102   -0.4045 C.3       1 UNK         0.0000 
     43 C43         0.0508    4.5450   -1.5633 C.3       1 UNK         0.0000 
     44 C44         1.0152    4.0088   -2.6473 C.3       1 UNK         0.0000 
     45 C45         1.7184    2.6621   -2.3362 C.3       1 UNK         0.0000 
     46 N46         0.8663    1.4629   -2.2674 N.am      1 UNK         0.0000 
     47 O47         0.9023    0.7628   -1.1460 O.co2     1 UNK         0.0000 
     48 C48        -0.0783    0.9950   -3.1302 C.2       1 UNK         0.0000 
     49 O49        -0.7465    0.1162   -2.5791 O.co2     1 UNK         0.0000 
     50 C50        -0.1530    1.3772   -4.5150 C.2       1 UNK         0.0000 
     51 C51        -1.0009    0.7157   -5.3475 C.2       1 UNK         0.0000 
     52 C52        -1.2127    0.9217   -6.7932 C.ar      1 UNK         0.0000 
     53 C53        -2.1038    0.0635   -7.4602 C.ar      1 UNK         0.0000 
     54 C54        -2.3457    0.2095   -8.8212 C.ar      1 UNK         0.0000 
     55 C55        -1.6951    1.2201   -9.5293 C.ar      1 UNK         0.0000 
     56 C56        -0.8092    2.0800   -8.8821 C.ar      1 UNK         0.0000 
     57 C57        -0.5673    1.9292   -7.5175 C.ar      1 UNK         0.0000 
     58 H58         5.1424   -3.2176    2.4610 H         1 UNK         0.0000 
     59 H59         6.6441   -4.6770    3.7439 H         1 UNK         0.0000 
     60 H60         5.8821   -6.9283    4.4343 H         1 UNK         0.0000 
     61 H61         3.6011   -7.7020    3.8740 H         1 UNK         0.0000 
     62 H62         2.0844   -6.2404    2.5814 H         1 UNK         0.0000 
     63 H63        -1.0785   -4.8259    0.7181 H         1 UNK         0.0000 
     64 H64        -1.4369   -4.8939   -0.9779 H         1 UNK         0.0000 
     65 H65        -3.4674   -4.3937    0.3558 H         1 UNK         0.0000 
     66 H66        -3.1246   -3.0715   -0.7127 H         1 UNK         0.0000 
     67 H67        -1.9220   -1.9111    1.2954 H         1 UNK         0.0000 
     68 H68        -2.4806   -3.2204    2.2752 H         1 UNK         0.0000 
     69 H69        -4.8564   -2.6330    1.7559 H         1 UNK         0.0000 
     70 H70        -3.9661   -1.5155    2.6921 H         1 UNK         0.0000 
     71 H71        -6.0938    0.6131    1.3307 H         1 UNK         0.0000 
     72 H72        -2.6793    0.2408    2.1364 H         1 UNK         0.0000 
     73 H73        -2.8402    1.1347    3.5730 H         1 UNK         0.0000 
     74 H74        -3.2127    2.3396    0.4005 H         1 UNK         0.0000 
     75 H75        -1.7829    3.3484    3.8647 H         1 UNK         0.0000 
     76 H76        -2.9980    4.0399    2.8461 H         1 UNK         0.0000 
     77 H77        -1.7769    4.7184    0.6558 H         1 UNK         0.0000 
     78 H78         0.3019    9.5071    2.9933 H         1 UNK         0.0000 
     79 H79         0.0327   10.4555    1.5197 H         1 UNK         0.0000 
     80 H80         1.5374    9.5811    1.7440 H         1 UNK         0.0000 
     81 H81         1.2911    4.5929    0.2228 H         1 UNK         0.0000 
     82 H82         1.5098    5.9662   -0.8403 H         1 UNK         0.0000 
     83 H83        -0.6482    5.2213   -2.0602 H         1 UNK         0.0000 
     84 H84        -0.5645    3.7303   -1.1666 H         1 UNK         0.0000 
     85 H85         0.4897    3.9484   -3.5987 H         1 UNK         0.0000 
     86 H86         1.7917    4.7569   -2.8050 H         1 UNK         0.0000 
     87 H87         2.2256    2.7948   -1.3720 H         1 UNK         0.0000 
     88 H88         2.5273    2.4708   -3.0421 H         1 UNK         0.0000 
     89 H89        -2.6236   -0.7221   -6.9237 H         1 UNK         0.0000 
     90 H90        -3.0392   -0.4523   -9.3274 H         1 UNK         0.0000 
     91 H91        -1.8799    1.3346  -10.5872 H         1 UNK         0.0000 
     92 H92        -0.3140    2.8669   -9.4338 H         1 UNK         0.0000 
     93 H93         0.1153    2.6036   -7.0258 H         1 UNK         0.0000 
     94 H94        -1.6136   -0.0812   -4.9375 H         1 UNK         0.0000 
     95 H95         0.4955    2.1723   -4.8345 H         1 UNK         0.0000 
     96 H96         0.9591   -4.8962    1.1732 H         1 UNK         0.0000 
     97 H97         3.1559   -2.7572    1.4543 H         1 UNK         0.0000 
@<TRIPOS>BOND
     1    1   11 nc   
     2    1   13 nc   
     3    1   22 nc   
     4    1   30 nc   
     5    1   47 nc   
     6    1   49 nc   
     7    2    3 ar   
     8    2    7 ar   
     9    2   58 1    
    10    3   59 1    
    11    3    4 ar   
    12    4   60 1    
    13    4    5 ar   
    14    5   61 1    
    15    5    6 ar   
    16    6    7 ar   
    17    6   62 1    
    18    7    8 1    
    19    8    9 2    
    20    8   97 1    
    21    9   10 1    
    22    9   96 1    
    23   10   11 2    
    24   10   12 am   BACKBONE|DICT|INTERRES
    25   12   14 1    
    26   12   13 1    
    27   14   15 1    
    28   14   63 1    
    29   14   64 1    
    30   15   65 1    
    31   15   16 1    
    32   15   66 1    
    33   16   17 1    
    34   16   68 1    
    35   16   67 1    
    36   17   69 1    
    37   17   70 1    
    38   17   18 1    
    39   18   19 1    
    40   18   23 1    
    41   18   20 1    
    42   20   21 2    
    43   20   22 1    
    44   23   24 am   BACKBONE|DICT|INTERRES
    45   23   71 1    
    46   24   26 1    
    47   24   25 2    
    48   26   73 1    
    49   26   27 1    
    50   26   72 1    
    51   27   28 1    
    52   27   32 1    
    53   27   29 1    
    54   28   74 1    
    55   29   31 2    
    56   29   30 1    
    57   32   76 1    
    58   32   75 1    
    59   32   33 1    
    60   33   34 2    
    61   33   35 am   BACKBONE|DICT|INTERRES
    62   35   36 1    
    63   35   77 1    
    64   36   37 1    
    65   36   38 1    
    66   36   42 1    
    67   38   39 2    
    68   38   40 1    
    69   40   41 1    
    70   41   78 1    
    71   41   79 1    
    72   41   80 1    
    73   42   81 1    
    74   42   43 1    
    75   42   82 1    
    76   43   84 1    
    77   43   44 1    
    78   43   83 1    
    79   44   45 1    
    80   44   85 1    
    81   44   86 1    
    82   45   87 1    
    83   45   46 1    
    84   45   88 1    
    85   46   47 1    
    86   46   48 am   BACKBONE|DICT|INTERRES
    87   48   49 2    
    88   48   50 1    
    89   50   51 2    
    90   50   95 1    
    91   51   52 1    
    92   51   94 1    
    93   52   53 ar   
    94   52   57 ar   
    95   53   89 1    
    96   53   54 ar   
    97   54   55 ar   
    98   54   90 1    
    99   55   56 ar   
   100   55   91 1    
   101   56   57 ar   
   102   56   92 1    
   103   57   93 1    
@<TRIPOS>SUBSTRUCTURE
     1 UNK         1 GROUP             0       ****    0 ROOT    
@<TRIPOS>MOLECULE
192_C_c1
94   100    1
SMALL
USER_CHARGES


@<TRIPOS>ATOM
      1 Fe1         0.3856   -0.1649   -0.8605 Fe        1 UNK         0.0000 
      2 C2         -5.1633    4.1954    0.8625 C.ar      1 UNK         0.0000 
      3 C3         -6.1274    5.1281    1.2305 C.ar      1 UNK         0.0000 
      4 C4         -5.7410    6.4332    1.5243 C.ar      1 UNK         0.0000 
      5 C5         -4.4024    6.8122    1.4537 C.ar      1 UNK         0.0000 
      6 C6         -3.4393    5.8776    1.0839 C.ar      1 UNK         0.0000 
      7 C7         -3.8168    4.5650    0.7881 C.ar      1 UNK         0.0000 
      8 C8         -2.8487    3.5397    0.3864 C.2       1 UNK         0.0000 
      9 C9         -1.5340    3.7042    0.1131 C.2       1 UNK         0.0000 
     10 C10        -0.7359    2.5727   -0.2928 C.2       1 UNK         0.0000 
     11 O11        -1.2262    1.4467   -0.4192 O.co2     1 UNK         0.0000 
     12 N12         0.5704    2.7257   -0.6489 N.am      1 UNK         0.0000 
     13 O13         1.1900    1.7701   -1.3358 O.co2     1 UNK         0.0000 
     14 C14         1.4977    3.7800   -0.1789 C.3       1 UNK         0.0000 
     15 C15         2.8204    3.2560    0.4600 C.3       1 UNK         0.0000 
     16 C16         2.6045    2.2660    1.6299 C.3       1 UNK         0.0000 
     17 C17         3.7964    1.3078    1.9278 C.3       1 UNK         0.0000 
     18 C18         3.4009   -0.1521    2.3311 C.3       1 UNK         0.0000 
     19 H19         4.2362   -0.5888    2.8909 H         1 UNK         0.0000 
     20 C20         3.2640   -1.0738    1.0543 C.2       1 UNK         0.0000 
     21 O21         2.4460   -0.6889    0.1666 O.co2     1 UNK         0.0000 
     22 O22         4.0872   -2.0099    1.0166 O.co2     1 UNK         0.0000 
     23 N23         2.2596   -0.1024    3.2823 N.am      1 UNK         0.0000 
     24 C24         1.3447   -0.9612    3.7605 C.2       1 UNK         0.0000 
     25 O25         0.6025   -0.5418    4.6465 O.2       1 UNK         0.0000 
     26 C26         1.1779   -2.4264    3.2972 C.3       1 UNK         0.0000 
     27 C27        -0.3039   -2.8666    3.0007 C.3       1 UNK         0.0000 
     28 O28        -1.0379   -2.6738    4.2248 O.3       1 UNK         0.0000 
     29 C29        -0.9678   -2.0681    1.7969 C.2       1 UNK         0.0000 
     30 O30        -0.2648   -1.2885    1.0940 O.co2     1 UNK         0.0000 
     31 O31        -2.1817   -2.2616    1.5525 O.co2     1 UNK         0.0000 
     32 C32        -0.5096   -4.4085    2.7998 C.3       1 UNK         0.0000 
     33 C33         0.1571   -5.0821    1.5911 C.2       1 UNK         0.0000 
     34 O34         1.3420   -4.8990    1.3333 O.2       1 UNK         0.0000 
     35 N35        -0.5977   -5.9341    0.8834 N.am      1 UNK         0.0000 
     36 C36        -0.1050   -6.7639   -0.2242 C.3       1 UNK         0.0000 
     37 H37         0.8179   -6.3315   -0.6159 H         1 UNK         0.0000 
     38 C38         0.2463   -8.1880    0.2698 C.2       1 UNK         0.0000 
     39 O39        -0.8154   -8.8035    0.8549 O.3       1 UNK         0.0000 
     40 O40         1.3216   -8.7217    0.1245 O.2       1 UNK         0.0000 
     41 C41        -1.1229   -6.8316   -1.3907 C.3       1 UNK         0.0000 
     42 C42        -1.6958   -5.4780   -1.8665 C.3       1 UNK         0.0000 
     43 C43        -0.6422   -4.4059   -2.2107 C.3       1 UNK         0.0000 
     44 C44        -1.2475   -3.1542   -2.8875 C.3       1 UNK         0.0000 
     45 N45        -0.4618   -1.9356   -2.6524 N.am      1 UNK         0.0000 
     46 O46        -0.9233   -1.2059   -1.6481 O.co2     1 UNK         0.0000 
     47 C47         0.7603   -1.6463   -3.1638 C.2       1 UNK         0.0000 
     48 O48         1.3986   -0.8001   -2.5305 O.co2     1 UNK         0.0000 
     49 C49         1.2158   -2.2145   -4.4029 C.2       1 UNK         0.0000 
     50 C50         2.3107   -1.6914   -5.0017 C.2       1 UNK         0.0000 
     51 C51         2.9144   -2.0959   -6.2747 C.ar      1 UNK         0.0000 
     52 C52         3.9867   -1.3397   -6.7618 C.ar      1 UNK         0.0000 
     53 C53         4.5719   -1.6642   -7.9800 C.ar      1 UNK         0.0000 
     54 C54         4.0836   -2.7465   -8.7081 C.ar      1 UNK         0.0000 
     55 C55         3.0234   -3.5098   -8.2262 C.ar      1 UNK         0.0000 
     56 C56         2.4390   -3.1855   -7.0077 C.ar      1 UNK         0.0000 
     57 H57        -5.4708    3.1821    0.6361 H         1 UNK         0.0000 
     58 H58        -7.1684    4.8393    1.2861 H         1 UNK         0.0000 
     59 H59        -6.4875    7.1570    1.8094 H         1 UNK         0.0000 
     60 H60        -4.1140    7.8281    1.6844 H         1 UNK         0.0000 
     61 H61        -2.4048    6.1815    1.0348 H         1 UNK         0.0000 
     62 H62         1.7415    4.3956   -1.0450 H         1 UNK         0.0000 
     63 H63         1.0256    4.4417    0.5439 H         1 UNK         0.0000 
     64 H64         3.4072    2.7745   -0.3246 H         1 UNK         0.0000 
     65 H65         3.4334    4.0942    0.7900 H         1 UNK         0.0000 
     66 H66         1.7230    1.6659    1.4137 H         1 UNK         0.0000 
     67 H67         2.3428    2.8257    2.5296 H         1 UNK         0.0000 
     68 H68         4.4812    1.2745    1.0758 H         1 UNK         0.0000 
     69 H69         4.3881    1.7397    2.7310 H         1 UNK         0.0000 
     70 H70         2.1583    0.8097    3.6882 H         1 UNK         0.0000 
     71 H71         1.5780   -3.0468    4.0941 H         1 UNK         0.0000 
     72 H72         1.7979   -2.6448    2.4414 H         1 UNK         0.0000 
     73 H73        -0.7829   -1.7958    4.5496 H         1 UNK         0.0000 
     74 H74        -0.1418   -4.9402    3.6729 H         1 UNK         0.0000 
     75 H75        -1.5816   -4.6169    2.7514 H         1 UNK         0.0000 
     76 H76        -1.5599   -6.0643    1.1482 H         1 UNK         0.0000 
     77 H77        -0.6518   -7.3363   -2.2352 H         1 UNK         0.0000 
     78 H78        -1.9641   -7.4647   -1.1044 H         1 UNK         0.0000 
     79 H79        -2.3631   -5.0791   -1.0971 H         1 UNK         0.0000 
     80 H80        -2.3307   -5.6539   -2.7360 H         1 UNK         0.0000 
     81 H81        -0.1287   -4.1127   -1.2913 H         1 UNK         0.0000 
     82 H82         0.1246   -4.8197   -2.8667 H         1 UNK         0.0000 
     83 H83        -1.4490   -3.3215   -3.9461 H         1 UNK         0.0000 
     84 H84        -2.2468   -3.0106   -2.4568 H         1 UNK         0.0000 
     85 H85         4.3679   -0.4948   -6.2020 H         1 UNK         0.0000 
     86 H86         5.3959   -1.0747   -8.3578 H         1 UNK         0.0000 
     87 H87         4.5319   -2.9953   -9.6560 H         1 UNK         0.0000 
     88 H88         2.6518   -4.3491   -8.7963 H         1 UNK         0.0000 
     89 H89         1.6176   -3.7827   -6.6413 H         1 UNK         0.0000 
     90 H90        -0.4825   -9.6610    1.1254 H         1 UNK         0.0000 
     91 H91         2.8250   -0.8680   -4.5206 H         1 UNK         0.0000 
     92 H92         0.6468   -3.0318   -4.8144 H         1 UNK         0.0000 
     93 H93        -3.2741    2.5461    0.3067 H         1 UNK         0.0000 
     94 H94        -1.0485    4.6644    0.1657 H         1 UNK         0.0000 
@<TRIPOS>BOND
     1    1   11 nc   
     2    1   13 nc   
     3    1   21 nc   
     4    1   30 nc   
     5    1   46 nc   
     6    1   48 nc   
     7    2    3 ar   
     8    2    7 ar   
     9    2   57 1    
    10    3   58 1    
    11    3    4 ar   
    12    4   59 1    
    13    4    5 ar   
    14    5   60 1    
    15    5    6 ar   
    16    6    7 ar   
    17    6   61 1    
    18    7    8 1    
    19    8    9 2    
    20    8   93 1    
    21    9   10 1    
    22    9   94 1    
    23   10   11 2    
    24   10   12 am   BACKBONE|DICT|INTERRES
    25   12   14 1    
    26   12   13 1    
    27   14   15 1    
    28   14   63 1    
    29   14   62 1    
    30   15   65 1    
    31   15   16 1    
    32   15   64 1    
    33   16   17 1    
    34   16   67 1    
    35   16   66 1    
    36   17   18 1    
    37   17   69 1    
    38   17   68 1    
    39   18   19 1    
    40   18   23 1    
    41   18   20 1    
    42   20   21 1    
    43   20   22 2    
    44   23   24 am   BACKBONE|DICT|INTERRES
    45   23   70 1    
    46   24   25 2    
    47   24   26 1    
    48   26   71 1    
    49   26   27 1    
    50   26   72 1    
    51   27   28 1    
    52   27   29 1    
    53   27   32 1    
    54   28   73 1    
    55   29   30 1    
    56   29   31 2    
    57   32   75 1    
    58   32   74 1    
    59   32   33 1    
    60   33   34 2    
    61   33   35 am   BACKBONE|DICT|INTERRES
    62   35   76 1    
    63   35   36 1    
    64   36   37 1    
    65   36   38 1    
    66   36   41 1    
    67   38   39 1    
    68   38   40 2    
    69   39   90 1    
    70   41   78 1    
    71   41   42 1    
    72   41   77 1    
    73   42   79 1    
    74   42   43 1    
    75   42   80 1    
    76   43   81 1    
    77   43   44 1    
    78   43   82 1    
    79   44   45 1    
    80   44   84 1    
    81   44   83 1    
    82   45   46 1    
    83   45   47 am   BACKBONE|DICT|INTERRES
    84   47   48 2    
    85   47   49 1    
    86   49   50 2    
    87   49   92 1    
    88   50   51 1    
    89   50   91 1    
    90   51   52 ar   
    91   51   56 ar   
    92   52   85 1    
    93   52   53 ar   
    94   53   54 ar   
    95   53   86 1    
    96   54   55 ar   
    97   54   87 1    
    98   55   56 ar   
    99   55   88 1    
   100   56   89 1    
@<TRIPOS>SUBSTRUCTURE
     1 UNK         1 GROUP             0       ****    0 ROOT    
@<TRIPOS>MOLECULE
193_c1
109   114    1
SMALL
USER_CHARGES


@<TRIPOS>ATOM
      1 Fe1         0.0019    0.0474    0.0744 Fe        1 UNK         0.0000 
      2 C2         -0.4332    7.0021   -1.2342 C.3       1 UNK         0.0000 
      3 C3          0.6035    5.9053   -1.5158 C.3       1 UNK         0.0000 
      4 C4          0.2023    5.1319   -2.8020 C.3       1 UNK         0.0000 
      5 C5          0.7495    4.9781   -0.2808 C.3       1 UNK         0.0000 
      6 C6          1.7689    3.8064   -0.5297 C.3       1 UNK         0.0000 
      7 N7          1.4700    2.4985    0.0936 N.pl3     1 UNK         0.0000 
      8 O8          0.1752    2.2577    0.2679 O.co2     1 UNK         0.0000 
      9 C9          3.2463    4.1600   -0.1758 C.2       1 UNK         0.0000 
     10 N10         4.1653    3.2942    0.0595 N.2       1 UNK         0.0000 
     11 C11         3.7916    1.9624    0.0482 C.2       1 UNK         0.0000 
     12 C12         2.4901    1.5411    0.1112 C.2       1 UNK         0.0000 
     13 O13         2.1401    0.3107    0.0017 O.co2     1 UNK         0.0000 
     14 C14         4.9960    1.0218   -0.0234 C.3       1 UNK         0.0000 
     15 C15         5.8890    1.0179    1.2482 C.3       1 UNK         0.0000 
     16 C16         5.0622    0.7568    2.5318 C.3       1 UNK         0.0000 
     17 C17         7.0368   -0.0050    1.1172 C.3       1 UNK         0.0000 
     18 H18        -1.4133    6.5529   -1.0795 H         1 UNK         0.0000 
     19 H19        -0.5143    7.6974   -2.0649 H         1 UNK         0.0000 
     20 H20        -0.1889    7.5680   -0.3397 H         1 UNK         0.0000 
     21 H21         1.5727    6.3815   -1.6793 H         1 UNK         0.0000 
     22 H22        -0.6630    4.4949   -2.5995 H         1 UNK         0.0000 
     23 H23        -0.0513    5.8010   -3.6245 H         1 UNK         0.0000 
     24 H24         0.9859    4.4659   -3.1748 H         1 UNK         0.0000 
     25 H25         0.9997    5.5333    0.6207 H         1 UNK         0.0000 
     26 H26        -0.2439    4.5860   -0.0556 H         1 UNK         0.0000 
     27 H27         3.5496    5.1935   -0.1816 H         1 UNK         0.0000 
     28 H28         4.6371    0.0014   -0.2007 H         1 UNK         0.0000 
     29 H29         5.5711    1.2899   -0.9117 H         1 UNK         0.0000 
     30 H30         6.3254    2.0203    1.3284 H         1 UNK         0.0000 
     31 H31         4.5874   -0.2263    2.4985 H         1 UNK         0.0000 
     32 H32         4.2531    1.4874    2.6355 H         1 UNK         0.0000 
     33 H33         5.6731    0.8188    3.4312 H         1 UNK         0.0000 
     34 H34         7.7186    0.0688    1.9624 H         1 UNK         0.0000 
     35 H35         6.6429   -1.0218    1.0875 H         1 UNK         0.0000 
     36 H36         7.6066    0.1588    0.2028 H         1 UNK         0.0000 
     37 C37        -1.0030   -7.0189   -0.2853 C.3       1 UNK         0.0000 
     38 C38        -1.2844   -5.8920    0.7203 C.3       1 UNK         0.0000 
     39 C39        -2.6364   -5.2064    0.3737 C.3       1 UNK         0.0000 
     40 C40        -0.0980   -4.8902    0.7552 C.3       1 UNK         0.0000 
     41 C41        -0.3443   -3.7212    1.7751 C.3       1 UNK         0.0000 
     42 N42         0.2432   -2.3953    1.4609 N.pl3     1 UNK         0.0000 
     43 O43         0.3591   -2.1483    0.1532 O.co2     1 UNK         0.0000 
     44 C44         0.0714   -4.0768    3.2379 C.2       1 UNK         0.0000 
     45 N45         0.3321   -3.2158    4.1528 N.2       1 UNK         0.0000 
     46 C46         0.2551   -1.8803    3.7925 C.2       1 UNK         0.0000 
     47 C47         0.2566   -1.4460    2.4949 C.2       1 UNK         0.0000 
     48 O48         0.0179   -0.2150    2.1870 O.co2     1 UNK         0.0000 
     49 C49         0.1657   -0.9538    5.0064 C.3       1 UNK         0.0000 
     50 C50         1.4749   -0.8601    5.8355 C.3       1 UNK         0.0000 
     51 C51         2.7050   -0.5373    4.9501 C.3       1 UNK         0.0000 
     52 C52         1.3369    0.1700    6.9736 C.3       1 UNK         0.0000 
     53 H53        -0.9164   -6.6070   -1.2896 H         1 UNK         0.0000 
     54 H54        -1.8052   -7.7523   -0.2928 H         1 UNK         0.0000 
     55 H55        -0.0736   -7.5352   -0.0615 H         1 UNK         0.0000 
     56 H56        -1.3644   -6.3382    1.7150 H         1 UNK         0.0000 
     57 H57        -2.5251   -4.5936   -0.5243 H         1 UNK         0.0000 
     58 H58        -3.4335   -5.9299    0.1985 H         1 UNK         0.0000 
     59 H59        -2.9997   -4.5278    1.1529 H         1 UNK         0.0000 
     60 H60         0.8484   -5.3900    0.9581 H         1 UNK         0.0000 
     61 H61         0.0364   -4.5086   -0.2598 H         1 UNK         0.0000 
     62 H62         0.0972   -5.1137    3.5354 H         1 UNK         0.0000 
     63 H63        -0.1014    0.0530    4.6640 H         1 UNK         0.0000 
     64 H64        -0.6796   -1.2823    5.6158 H         1 UNK         0.0000 
     65 H65         1.6287   -1.8517    6.2742 H         1 UNK         0.0000 
     66 H66         2.5953    0.4353    4.4645 H         1 UNK         0.0000 
     67 H67         2.8197   -1.2727    4.1472 H         1 UNK         0.0000 
     68 H68         3.6302   -0.5367    5.5240 H         1 UNK         0.0000 
     69 H69         2.2145    0.1538    7.6160 H         1 UNK         0.0000 
     70 H70         1.2333    1.1783    6.5696 H         1 UNK         0.0000 
     71 H71         0.4591   -0.0348    7.5860 H         1 UNK         0.0000 
     72 C72        -7.0096   -1.1300    0.2257 C.3       1 UNK         0.0000 
     73 C73        -5.8720   -1.4140   -0.7653 C.3       1 UNK         0.0000 
     74 C74        -5.1347   -2.7162   -0.3440 C.3       1 UNK         0.0000 
     75 C75        -4.9265   -0.1851   -0.8670 C.3       1 UNK         0.0000 
     76 C76        -3.7035   -0.4393   -1.8271 C.3       1 UNK         0.0000 
     77 N77        -2.3892    0.1324   -1.4248 N.pl3     1 UNK         0.0000 
     78 O78        -2.1957   -0.0221   -0.1086 O.co2     1 UNK         0.0000 
     79 C79        -3.9810   -0.0232   -3.3020 C.2       1 UNK         0.0000 
     80 N80        -3.0709    0.1936   -4.1752 N.2       1 UNK         0.0000 
     81 C81        -1.7593    0.1142   -3.7451 C.2       1 UNK         0.0000 
     82 C82        -1.3852    0.1259   -2.4230 C.2       1 UNK         0.0000 
     83 O83        -0.1472    0.0693   -2.0565 O.co2     1 UNK         0.0000 
     84 C84        -0.7966    0.0575   -4.9352 C.3       1 UNK         0.0000 
     85 C85        -0.7946    1.3259   -5.8357 C.3       1 UNK         0.0000 
     86 C86        -0.5427    2.6092   -5.0113 C.3       1 UNK         0.0000 
     87 C87         0.2235    1.1979   -6.9865 C.3       1 UNK         0.0000 
     88 H88        -6.6051   -0.9960    1.2285 H         1 UNK         0.0000 
     89 H89        -7.7174   -1.9535    0.2608 H         1 UNK         0.0000 
     90 H90        -7.5516   -0.2238   -0.0302 H         1 UNK         0.0000 
     91 H91        -6.3062   -1.5634   -1.7566 H         1 UNK         0.0000 
     92 H92        -4.5360   -2.5381    0.5531 H         1 UNK         0.0000 
     93 H93        -5.8299   -3.5304   -0.1353 H         1 UNK         0.0000 
     94 H94        -4.4368   -3.0885   -1.0991 H         1 UNK         0.0000 
     95 H95        -5.4678    0.7159   -1.1527 H         1 UNK         0.0000 
     96 H96        -4.5929    0.0500    0.1443 H         1 UNK         0.0000 
     97 H97        -5.0014    0.0479   -3.6465 H         1 UNK         0.0000 
     98 H98         0.2214   -0.1337   -4.5758 H         1 UNK         0.0000 
     99 H99        -1.0667   -0.8254   -5.5193 H         1 UNK         0.0000 
    100 H100       -1.7969    1.4028   -6.2719 H         1 UNK         0.0000 
    101 H101        0.4309    2.5666   -4.5186 H         1 UNK         0.0000 
    102 H102       -1.2898    2.7160   -4.2177 H         1 UNK         0.0000 
    103 H103       -0.5895    3.5080   -5.6252 H         1 UNK         0.0000 
    104 H104        0.1648    2.0560   -7.6538 H         1 UNK         0.0000 
    105 H105        1.2401    1.1413   -6.5949 H         1 UNK         0.0000 
    106 H106        0.0385    0.2974   -7.5723 H         1 UNK         0.0000 
    107 H107        1.7816    3.5290   -1.5781 H         1 UNK         0.0000 
    108 H108       -1.3980   -3.4686    1.8166 H         1 UNK         0.0000 
    109 H109       -3.4632   -1.4996   -1.8648 H         1 UNK         0.0000 
@<TRIPOS>BOND
     1    1    8 nc   
     2    1   13 nc   
     3    1   43 nc   
     4    1   48 nc   
     5    1   78 nc   
     6    1   83 nc   
     7    2   18 1    
     8    2   20 1    
     9    2    3 1    
    10    2   19 1    
    11    3    5 1    
    12    3    4 1    
    13    3   21 1    
    14    4   22 1    
    15    4   23 1    
    16    4   24 1    
    17    5   26 1    
    18    5   25 1    
    19    5    6 1    
    20    6    7 1    
    21    6    9 1    
    22    6  107 1    
    23    7   12 1    
    24    7    8 1    
    25    9   10 2    
    26    9   27 1    
    27   10   11 1    
    28   11   14 1    
    29   11   12 2    
    30   12   13 1    
    31   14   15 1    
    32   14   28 1    
    33   14   29 1    
    34   15   16 1    
    35   15   17 1    
    36   15   30 1    
    37   16   31 1    
    38   16   32 1    
    39   16   33 1    
    40   17   35 1    
    41   17   34 1    
    42   17   36 1    
    43   37   54 1    
    44   37   55 1    
    45   37   38 1    
    46   37   53 1    
    47   38   56 1    
    48   38   39 1    
    49   38   40 1    
    50   39   58 1    
    51   39   59 1    
    52   39   57 1    
    53   40   60 1    
    54   40   41 1    
    55   40   61 1    
    56   41   44 1    
    57   41   42 1    
    58   41  108 1    
    59   42   47 1    
    60   42   43 1    
    61   44   62 1    
    62   44   45 2    
    63   45   46 1    
    64   46   49 1    
    65   46   47 2    
    66   47   48 1    
    67   49   64 1    
    68   49   50 1    
    69   49   63 1    
    70   50   65 1    
    71   50   52 1    
    72   50   51 1    
    73   51   68 1    
    74   51   66 1    
    75   51   67 1    
    76   52   69 1    
    77   52   71 1    
    78   52   70 1    
    79   72   88 1    
    80   72   73 1    
    81   72   89 1    
    82   72   90 1    
    83   73   75 1    
    84   73   74 1    
    85   73   91 1    
    86   74   92 1    
    87   74   93 1    
    88   74   94 1    
    89   75   96 1    
    90   75   76 1    
    91   75   95 1    
    92   76   77 1    
    93   76   79 1    
    94   76  109 1    
    95   77   78 1    
    96   77   82 1    
    97   79   80 2    
    98   79   97 1    
    99   80   81 1    
   100   81   82 2    
   101   81   84 1    
   102   82   83 1    
   103   84   98 1    
   104   84   85 1    
   105   84   99 1    
   106   85   86 1    
   107   85   87 1    
   108   85  100 1    
   109   86  101 1    
   110   86  102 1    
   111   86  103 1    
   112   87  105 1    
   113   87  104 1    
   114   87  106 1    
@<TRIPOS>SUBSTRUCTURE
     1 UNK         1 GROUP             0       ****    0 ROOT    
@<TRIPOS>MOLECULE
195_c1
86   91    1
SMALL
USER_CHARGES


@<TRIPOS>ATOM
      1 Fe1         0.1521   -0.5647   -1.5775 Fe        1 UNK         0.0000 
      2 O2          1.5554    0.5968   -2.3771 O.co2     1 UNK         0.0000 
      3 C3          1.2886    1.7428   -2.7262 C.2       1 UNK         0.0000 
      4 C4          2.3767    2.7972   -2.8959 C.3       1 UNK         0.0000 
      5 N5         -0.0215    1.9915   -2.8752 N.am      1 UNK         0.0000 
      6 O6         -0.9019    1.0008   -2.7606 O.co2     1 UNK         0.0000 
      7 C7         -0.5954    3.3432   -2.9306 C.3       1 UNK         0.0000 
      8 C8         -1.1214    3.7798   -1.5461 C.3       1 UNK         0.0000 
      9 C9         -1.6256    5.2394   -1.4982 C.3       1 UNK         0.0000 
     10 C10        -1.9599    5.7831   -0.0802 C.3       1 UNK         0.0000 
     11 H11        -2.3290    6.7989   -0.2238 H         1 UNK         0.0000 
     12 N12        -0.7811    5.9069    0.8007 N.am      1 UNK         0.0000 
     13 C13        -0.6494    5.4104    2.0411 C.2       1 UNK         0.0000 
     14 O14         0.3974    5.5967    2.6510 O.2       1 UNK         0.0000 
     15 C15        -3.2171    5.0538    0.4905 C.2       1 UNK         0.0000 
     16 O16        -4.2956    4.9584   -0.0798 O.2       1 UNK         0.0000 
     17 N17        -3.0721    4.5236    1.7152 N.am      1 UNK         0.0000 
     18 C18        -1.8776    4.6066    2.5792 C.3       1 UNK         0.0000 
     19 H19        -2.1782    5.1775    3.4579 H         1 UNK         0.0000 
     20 C20        -1.4003    3.2200    3.0883 C.3       1 UNK         0.0000 
     21 C21        -0.8536    2.3117    1.9623 C.3       1 UNK         0.0000 
     22 C22        -0.5294    0.8720    2.4038 C.3       1 UNK         0.0000 
     23 N23        -0.0561    0.0035    1.3017 N.am      1 UNK         0.0000 
     24 O24        -0.7836    0.0472    0.1949 O.co2     1 UNK         0.0000 
     25 C25         1.1146   -0.6806    1.2299 C.2       1 UNK         0.0000 
     26 O26         1.3918   -1.0746    0.0942 O.co2     1 UNK         0.0000 
     27 C27         1.9904   -0.9127    2.3484 C.2       1 UNK         0.0000 
     28 C28         1.6698   -1.4976    3.5254 C.2       1 UNK         0.0000 
     29 C29         2.7743   -1.7971    4.5236 C.3       1 UNK         0.0000 
     30 C30         0.2682   -1.9274    3.9506 C.3       1 UNK         0.0000 
     31 C31         0.0321   -3.4312    4.0019 C.3       1 UNK         0.0000 
     32 O32         0.2849   -4.0390    2.7353 O.3       1 UNK         0.0000 
     33 C33        -0.0014   -5.3497    2.5846 C.2       1 UNK         0.0000 
     34 O34        -0.4960   -6.0384    3.4852 O.2       1 UNK         0.0000 
     35 C35         0.5443   -5.9312    1.2605 C.3       1 UNK         0.0000 
     36 H36         1.6245   -5.9357    1.4215 H         1 UNK         0.0000 
     37 N37         0.2179   -7.3720    1.0915 N.am      1 UNK         0.0000 
     38 C38        -0.9914   -7.9596    1.1101 C.2       1 UNK         0.0000 
     39 O39        -2.0466   -7.3485    1.2273 O.2       1 UNK         0.0000 
     40 C40        -1.0165   -9.4735    0.9666 C.3       1 UNK         0.0000 
     41 C41         0.3574   -5.0878   -0.0420 C.3       1 UNK         0.0000 
     42 C42        -1.0675   -4.9165   -0.6396 C.3       1 UNK         0.0000 
     43 C43        -1.1045   -4.4235   -2.1102 C.3       1 UNK         0.0000 
     44 N44        -0.4658   -3.1122   -2.3199 N.am      1 UNK         0.0000 
     45 O45        -1.1554   -2.0462   -1.9164 O.co2     1 UNK         0.0000 
     46 C46         0.8187   -2.9064   -2.6604 C.2       1 UNK         0.0000 
     47 O47         1.1340   -1.7346   -2.4601 O.co2     1 UNK         0.0000 
     48 C48         1.8140   -3.9661   -3.1184 C.3       1 UNK         0.0000 
     49 H49         3.3644    2.3432   -2.8443 H         1 UNK         0.0000 
     50 H50         2.2821    3.2801   -3.8652 H         1 UNK         0.0000 
     51 H51         2.3244    3.5514   -2.1157 H         1 UNK         0.0000 
     52 H52        -1.4023    3.3733   -3.6715 H         1 UNK         0.0000 
     53 H53         0.1281    4.0905   -3.2735 H         1 UNK         0.0000 
     54 H54        -0.3190    3.6553   -0.8177 H         1 UNK         0.0000 
     55 H55        -1.9283    3.1079   -1.2416 H         1 UNK         0.0000 
     56 H56        -0.8654    5.8876   -1.9352 H         1 UNK         0.0000 
     57 H57        -2.4916    5.3427   -2.1564 H         1 UNK         0.0000 
     58 H58         0.0298    6.3804    0.4429 H         1 UNK         0.0000 
     59 H59        -3.8639    3.9985    2.0496 H         1 UNK         0.0000 
     60 H60        -0.6462    3.3390    3.8715 H         1 UNK         0.0000 
     61 H61        -2.2391    2.7208    3.5788 H         1 UNK         0.0000 
     62 H62         0.0483    2.7518    1.5375 H         1 UNK         0.0000 
     63 H63        -1.6003    2.2619    1.1656 H         1 UNK         0.0000 
     64 H64         0.1738    0.9098    3.2391 H         1 UNK         0.0000 
     65 H65        -1.4400    0.4408    2.8318 H         1 UNK         0.0000 
     66 H66         3.0084   -0.6157    2.1494 H         1 UNK         0.0000 
     67 H67         3.4593   -2.5271    4.0911 H         1 UNK         0.0000 
     68 H68         3.3400   -0.9027    4.7821 H         1 UNK         0.0000 
     69 H69         2.3781   -2.2292    5.4406 H         1 UNK         0.0000 
     70 H70        -0.4969   -1.5403    3.2893 H         1 UNK         0.0000 
     71 H71         0.0572   -1.4831    4.9224 H         1 UNK         0.0000 
     72 H72        -1.0049   -3.5981    4.2967 H         1 UNK         0.0000 
     73 H73         0.6428   -3.8815    4.7853 H         1 UNK         0.0000 
     74 H74         1.0183   -7.9744    0.9988 H         1 UNK         0.0000 
     75 H75        -0.0076   -9.8789    0.8904 H         1 UNK         0.0000 
     76 H76        -1.5062   -9.9153    1.8347 H         1 UNK         0.0000 
     77 H77        -1.5835   -9.7566    0.0792 H         1 UNK         0.0000 
     78 H78         0.7924   -4.0971    0.1032 H         1 UNK         0.0000 
     79 H79         0.9674   -5.5775   -0.7999 H         1 UNK         0.0000 
     80 H80        -1.6750   -4.2662   -0.0050 H         1 UNK         0.0000 
     81 H81        -1.5742   -5.8783   -0.6466 H         1 UNK         0.0000 
     82 H82        -0.6390   -5.1896   -2.7303 H         1 UNK         0.0000 
     83 H83        -2.1398   -4.3686   -2.4480 H         1 UNK         0.0000 
     84 H84         2.6577   -3.9625   -2.4368 H         1 UNK         0.0000 
     85 H85         1.3903   -4.9617   -3.1300 H         1 UNK         0.0000 
     86 H86         2.1879   -3.7352   -4.1110 H         1 UNK         0.0000 
@<TRIPOS>BOND
     1    1    2 nc   
     2    1    6 nc   
     3    1   24 nc   
     4    1   26 nc   
     5    1   45 nc   
     6    1   47 nc   
     7    2    3 2    
     8    3    4 1    
     9    3    5 am   BACKBONE|DICT|INTERRES
    10    4   49 1    
    11    4   51 1    
    12    4   50 1    
    13    5    6 1    
    14    5    7 1    
    15    7    8 1    
    16    7   52 1    
    17    7   53 1    
    18    8   55 1    
    19    8   54 1    
    20    8    9 1    
    21    9   10 1    
    22    9   56 1    
    23    9   57 1    
    24   10   11 1    
    25   10   15 1    
    26   10   12 1    
    27   12   13 am   BACKBONE|DICT|INTERRES
    28   12   58 1    
    29   13   18 1    
    30   13   14 2    
    31   15   17 am   BACKBONE|DICT|INTERRES
    32   15   16 2    
    33   17   59 1    
    34   17   18 1    
    35   18   20 1    
    36   18   19 1    
    37   20   61 1    
    38   20   60 1    
    39   20   21 1    
    40   21   22 1    
    41   21   62 1    
    42   21   63 1    
    43   22   65 1    
    44   22   64 1    
    45   22   23 1    
    46   23   24 1    
    47   23   25 am   BACKBONE|DICT|INTERRES
    48   25   26 2    
    49   25   27 1    
    50   27   28 2    
    51   27   66 1    
    52   28   30 1    
    53   28   29 1    
    54   29   68 1    
    55   29   69 1    
    56   29   67 1    
    57   30   31 1    
    58   30   71 1    
    59   30   70 1    
    60   31   72 1    
    61   31   73 1    
    62   31   32 1    
    63   32   33 1    
    64   33   34 2    
    65   33   35 1    
    66   35   36 1    
    67   35   37 1    
    68   35   41 1    
    69   37   38 am   BACKBONE|DICT|INTERRES
    70   37   74 1    
    71   38   39 2    
    72   38   40 1    
    73   40   76 1    
    74   40   75 1    
    75   40   77 1    
    76   41   78 1    
    77   41   42 1    
    78   41   79 1    
    79   42   80 1    
    80   42   43 1    
    81   42   81 1    
    82   43   44 1    
    83   43   82 1    
    84   43   83 1    
    85   44   45 1    
    86   44   46 am   BACKBONE|DICT|INTERRES
    87   46   48 1    
    88   46   47 2    
    89   48   84 1    
    90   48   85 1    
    91   48   86 1    
@<TRIPOS>SUBSTRUCTURE
     1 UNK         1 GROUP             0       ****    0 ROOT    
@<TRIPOS>MOLECULE
196_c1
120   125    1
SMALL
USER_CHARGES


@<TRIPOS>ATOM
      1 Fe1         0.5403   -0.0458    1.2196 Fe        1 UNK         0.0000 
      2 C2          0.0574   -7.3454    8.4878 C.3       1 UNK         0.0000 
      3 C3         -0.1797   -6.4016    7.3212 C.2       1 UNK         0.0000 
      4 O4         -1.1086   -5.5987    7.3753 O.2       1 UNK         0.0000 
      5 N5          0.6564   -6.4809    6.2649 N.am      1 UNK         0.0000 
      6 C6          0.5315   -5.7174    4.9914 C.3       1 UNK         0.0000 
      7 H7          1.4272   -5.9837    4.4285 H         1 UNK         0.0000 
      8 C8         -0.6612   -6.2885    4.1684 C.2       1 UNK         0.0000 
      9 O9         -1.3970   -7.1895    4.5902 O.2       1 UNK         0.0000 
     10 O10        -0.7314   -5.8450    2.8771 O.3       1 UNK         0.0000 
     11 C11        -1.5256   -6.6021    1.9401 C.3       1 UNK         0.0000 
     12 C12        -1.8925   -5.9096    0.6091 C.3       1 UNK         0.0000 
     13 C13        -0.8465   -4.9270    0.0877 C.2       1 UNK         0.0000 
     14 C14         0.5298   -5.5316   -0.1637 C.3       1 UNK         0.0000 
     15 C15        -1.1970   -3.6241    0.0351 C.2       1 UNK         0.0000 
     16 C16        -0.3642   -2.4517   -0.0115 C.2       1 UNK         0.0000 
     17 O17        -0.6386   -1.4779    0.6804 O.co2     1 UNK         0.0000 
     18 N18         0.8211   -2.3236   -0.6579 N.am      1 UNK         0.0000 
     19 O19         1.6604   -1.3740   -0.2388 O.co2     1 UNK         0.0000 
     20 C20         1.0968   -2.8332   -2.0040 C.3       1 UNK         0.0000 
     21 C21         1.3221   -1.7198   -3.0655 C.3       1 UNK         0.0000 
     22 C22         1.2348   -2.2494   -4.5063 C.3       1 UNK         0.0000 
     23 C23         1.8515   -1.3421   -5.5991 C.3       1 UNK         0.0000 
     24 H24         2.9164   -1.2338   -5.3681 H         1 UNK         0.0000 
     25 N25         1.6565   -1.9883   -6.9114 N.am      1 UNK         0.0000 
     26 C26         2.6398   -2.4332   -7.7065 C.2       1 UNK         0.0000 
     27 O27         3.8224   -2.2805   -7.4165 O.2       1 UNK         0.0000 
     28 C28         2.2549   -3.1544   -8.9887 C.3       1 UNK         0.0000 
     29 C29         1.2331    0.0636   -5.6914 C.2       1 UNK         0.0000 
     30 O30         0.2296    0.3212   -6.3671 O.2       1 UNK         0.0000 
     31 O31         1.9488    0.9921   -4.9961 O.3       1 UNK         0.0000 
     32 C32         1.6358    2.3823   -5.0925 C.3       1 UNK         0.0000 
     33 C33         0.6845    2.8848   -3.9762 C.3       1 UNK         0.0000 
     34 C34         1.3202    3.1132   -2.5642 C.3       1 UNK         0.0000 
     35 C35         2.4701    2.1181   -2.2119 C.3       1 UNK         0.0000 
     36 C36         0.1928    3.3608   -1.4882 C.3       1 UNK         0.0000 
     37 C37         0.0169    2.3922   -0.3098 C.2       1 UNK         0.0000 
     38 O38         0.6281    1.3358   -0.2172 O.co2     1 UNK         0.0000 
     39 N39        -0.7754    2.6480    0.7557 N.am      1 UNK         0.0000 
     40 O40        -0.8306    1.7371    1.7353 O.co2     1 UNK         0.0000 
     41 C41        -1.2077    3.9977    1.1291 C.3       1 UNK         0.0000 
     42 C42        -0.0244    4.7488    1.7719 C.3       1 UNK         0.0000 
     43 C43        -0.3891    6.0253    2.5401 C.3       1 UNK         0.0000 
     44 C44         0.8468    6.8807    2.9353 C.3       1 UNK         0.0000 
     45 H45         1.3687    7.1692    2.0173 H         1 UNK         0.0000 
     46 N46         0.4089    8.0816    3.6691 N.am      1 UNK         0.0000 
     47 C47         0.5125    9.3423    3.2221 C.2       1 UNK         0.0000 
     48 O48         1.0234    9.6141    2.1374 O.2       1 UNK         0.0000 
     49 C49        -0.0338   10.4489    4.1106 C.3       1 UNK         0.0000 
     50 C50         1.8582    6.1288    3.8270 C.2       1 UNK         0.0000 
     51 O51         1.9288    6.2722    5.0545 O.2       1 UNK         0.0000 
     52 O52         2.6520    5.2843    3.1021 O.3       1 UNK         0.0000 
     53 C53         3.5737    4.3979    3.7391 C.3       1 UNK         0.0000 
     54 C54         3.1786    2.9405    3.4032 C.3       1 UNK         0.0000 
     55 C55         3.9307    1.7921    4.1170 C.2       1 UNK         0.0000 
     56 C56         5.1365    2.1915    4.9607 C.3       1 UNK         0.0000 
     57 C57         3.5529    0.4872    4.0356 C.2       1 UNK         0.0000 
     58 C58         2.4878    0.0122    3.1720 C.2       1 UNK         0.0000 
     59 O59         2.2584    0.4058    2.0158 O.co2     1 UNK         0.0000 
     60 N60         1.4664   -0.7639    3.6103 N.am      1 UNK         0.0000 
     61 O61         0.3817   -0.7101    2.8561 O.co2     1 UNK         0.0000 
     62 C62         1.4639   -1.8167    4.6411 C.3       1 UNK         0.0000 
     63 C63         1.0479   -3.2380    4.1193 C.3       1 UNK         0.0000 
     64 C64         0.6058   -4.1768    5.2623 C.3       1 UNK         0.0000 
     65 H65        -0.8009   -8.0085    8.5879 H         1 UNK         0.0000 
     66 H66         0.1458   -6.7584    9.4003 H         1 UNK         0.0000 
     67 H67         0.9588   -7.9457    8.3635 H         1 UNK         0.0000 
     68 H68         1.3642   -7.2032    6.2849 H         1 UNK         0.0000 
     69 H69        -2.4415   -6.9879    2.3929 H         1 UNK         0.0000 
     70 H70        -0.9470   -7.4941    1.6976 H         1 UNK         0.0000 
     71 H71        -2.8403   -5.3913    0.7638 H         1 UNK         0.0000 
     72 H72        -2.1131   -6.6568   -0.1496 H         1 UNK         0.0000 
     73 H73         0.8118   -6.2244    0.6281 H         1 UNK         0.0000 
     74 H74         1.3216   -4.7835   -0.2155 H         1 UNK         0.0000 
     75 H75         0.5165   -6.0793   -1.1097 H         1 UNK         0.0000 
     76 H76        -2.2007   -3.3391    0.3063 H         1 UNK         0.0000 
     77 H77         0.2698   -3.4611   -2.3279 H         1 UNK         0.0000 
     78 H78         1.9709   -3.4956   -1.9971 H         1 UNK         0.0000 
     79 H79         0.5876   -0.9212   -2.9273 H         1 UNK         0.0000 
     80 H80         2.3056   -1.2676   -2.9025 H         1 UNK         0.0000 
     81 H81         0.1922   -2.4671   -4.7508 H         1 UNK         0.0000 
     82 H82         1.7453   -3.2160   -4.5588 H         1 UNK         0.0000 
     83 H83         0.6941   -2.1486   -7.1692 H         1 UNK         0.0000 
     84 H84         1.1776   -3.2765   -9.0928 H         1 UNK         0.0000 
     85 H85         2.7112   -4.1427   -9.0016 H         1 UNK         0.0000 
     86 H86         2.6231   -2.6025   -9.8517 H         1 UNK         0.0000 
     87 H87         1.2087    2.6044   -6.0711 H         1 UNK         0.0000 
     88 H88         2.5774    2.9297   -5.0623 H         1 UNK         0.0000 
     89 H89        -0.1960    2.2339   -3.9365 H         1 UNK         0.0000 
     90 H90         0.3042    3.8459   -4.3268 H         1 UNK         0.0000 
     91 H91         2.1582    1.0706   -2.2503 H         1 UNK         0.0000 
     92 H92         2.8842    2.3092   -1.2229 H         1 UNK         0.0000 
     93 H93         3.3203    2.2093   -2.9004 H         1 UNK         0.0000 
     94 H94        -0.7902    3.4194   -1.9484 H         1 UNK         0.0000 
     95 H95        -2.0328    3.9395    1.8428 H         1 UNK         0.0000 
     96 H96        -1.6244    4.5570    0.2849 H         1 UNK         0.0000 
     97 H97         0.4664    4.0568    2.4578 H         1 UNK         0.0000 
     98 H98         0.7118    5.0045    1.0056 H         1 UNK         0.0000 
     99 H99        -0.9585    5.7545    3.4313 H         1 UNK         0.0000 
    100 H100       -1.0607    6.6441    1.9398 H         1 UNK         0.0000 
    101 H101       -0.0286    7.9094    4.5642 H         1 UNK         0.0000 
    102 H102       -0.5260   10.0546    5.0012 H         1 UNK         0.0000 
    103 H103        0.7785   11.1040    4.4251 H         1 UNK         0.0000 
    104 H104       -0.7568   11.0404    3.5500 H         1 UNK         0.0000 
    105 H105        4.5615    4.6184    3.3334 H         1 UNK         0.0000 
    106 H106        3.6112    4.5554    4.8183 H         1 UNK         0.0000 
    107 H107        2.1169    2.8191    3.6362 H         1 UNK         0.0000 
    108 H108        3.2868    2.8094    2.3244 H         1 UNK         0.0000 
    109 H109        5.6294    1.3266    5.4137 H         1 UNK         0.0000 
    110 H110        4.8571    2.8626    5.7734 H         1 UNK         0.0000 
    111 H111        5.8869    2.6946    4.3485 H         1 UNK         0.0000 
    112 H112        4.0539   -0.2806    4.6028 H         1 UNK         0.0000 
    113 H113        2.4126   -1.8710    5.1779 H         1 UNK         0.0000 
    114 H114        0.7479   -1.4957    5.4046 H         1 UNK         0.0000 
    115 H115        1.8766   -3.6787    3.5630 H         1 UNK         0.0000 
    116 H116        0.2160   -3.1655    3.4170 H         1 UNK         0.0000 
    117 H117       -0.3370   -3.8246    5.6804 H         1 UNK         0.0000 
    118 H118        1.3246   -4.0349    6.0727 H         1 UNK         0.0000 
    119 H119        1.8471    4.0725   -2.6397 H         1 UNK         0.0000 
    120 H120        0.3521    4.3497   -1.0506 H         1 UNK         0.0000 
@<TRIPOS>BOND
     1    1   17 nc   
     2    1   19 nc   
     3    1   38 nc   
     4    1   40 nc   
     5    1   59 nc   
     6    1   61 nc   
     7    2   65 1    
     8    2   66 1    
     9    2    3 1    
    10    2   67 1    
    11    3    4 2    
    12    3    5 am   BACKBONE|DICT|INTERRES
    13    5   68 1    
    14    5    6 1    
    15    6    7 1    
    16    6   64 1    
    17    6    8 1    
    18    8    9 2    
    19    8   10 1    
    20   10   11 1    
    21   11   69 1    
    22   11   12 1    
    23   11   70 1    
    24   12   71 1    
    25   12   13 1    
    26   12   72 1    
    27   13   15 2    
    28   13   14 1    
    29   14   73 1    
    30   14   74 1    
    31   14   75 1    
    32   15   76 1    
    33   15   16 1    
    34   16   17 2    
    35   16   18 am   BACKBONE|DICT|INTERRES
    36   18   19 1    
    37   18   20 1    
    38   20   21 1    
    39   20   77 1    
    40   20   78 1    
    41   21   79 1    
    42   21   80 1    
    43   21   22 1    
    44   22   23 1    
    45   22   81 1    
    46   22   82 1    
    47   23   24 1    
    48   23   25 1    
    49   23   29 1    
    50   25   26 am   BACKBONE|DICT|INTERRES
    51   25   83 1    
    52   26   27 2    
    53   26   28 1    
    54   28   85 1    
    55   28   84 1    
    56   28   86 1    
    57   29   31 1    
    58   29   30 2    
    59   31   32 1    
    60   32   88 1    
    61   32   33 1    
    62   32   87 1    
    63   33   34 1    
    64   33   89 1    
    65   33   90 1    
    66   34   35 1    
    67   34   36 1    
    68   34  119 1    
    69   35   92 1    
    70   35   91 1    
    71   35   93 1    
    72   36   37 1    
    73   36   94 1    
    74   36  120 1    
    75   37   38 2    
    76   37   39 am   BACKBONE|DICT|INTERRES
    77   39   41 1    
    78   39   40 1    
    79   41   42 1    
    80   41   95 1    
    81   41   96 1    
    82   42   97 1    
    83   42   43 1    
    84   42   98 1    
    85   43   44 1    
    86   43   99 1    
    87   43  100 1    
    88   44   45 1    
    89   44   46 1    
    90   44   50 1    
    91   46  101 1    
    92   46   47 am   BACKBONE|DICT|INTERRES
    93   47   49 1    
    94   47   48 2    
    95   49  103 1    
    96   49  102 1    
    97   49  104 1    
    98   50   51 2    
    99   50   52 1    
   100   52   53 1    
   101   53  106 1    
   102   53   54 1    
   103   53  105 1    
   104   54  107 1    
   105   54   55 1    
   106   54  108 1    
   107   55   56 1    
   108   55   57 2    
   109   56  109 1    
   110   56  110 1    
   111   56  111 1    
   112   57  112 1    
   113   57   58 1    
   114   58   60 am   BACKBONE|DICT|INTERRES
   115   58   59 2    
   116   60   62 1    
   117   60   61 1    
   118   62  114 1    
   119   62  113 1    
   120   62   63 1    
   121   63   64 1    
   122   63  115 1    
   123   63  116 1    
   124   64  117 1    
   125   64  118 1    
@<TRIPOS>SUBSTRUCTURE
     1 UNK         1 GROUP             0       ****    0 ROOT    
@<TRIPOS>MOLECULE
197_c1
71   79    1
SMALL
USER_CHARGES


@<TRIPOS>ATOM
      1 Fe1         0.8667   -1.8641   -0.8131 Fe        1 UNK         0.0000 
      2 C2          1.4349   -1.2671    4.2243 C.ar      1 UNK         0.0000 
      3 C3          1.7817   -2.6109    4.1068 C.ar      1 UNK         0.0000 
      4 C4          2.0620   -3.1502    2.8498 C.ar      1 UNK         0.0000 
      5 C5          1.9693   -2.3562    1.7132 C.ar      1 UNK         0.0000 
      6 O6          2.2047   -2.8551    0.5628 O.co2     1 UNK         0.0000 
      7 C7          1.5625   -1.0156    1.8347 C.ar      1 UNK         0.0000 
      8 O8          1.3564   -0.3946    0.7623 O.co2     1 UNK         0.0000 
      9 C9          1.3317   -0.4302    3.1103 C.ar      1 UNK         0.0000 
     10 C10         0.9931    1.0359    3.3716 C.2       1 UNK         0.0000 
     11 O11         1.0107    1.4935    4.5294 O.2       1 UNK         0.0000 
     12 N12         0.6551    1.8287    2.3472 N.am      1 UNK         0.0000 
     13 C13         0.2907    3.2518    2.5333 C.3       1 UNK         0.0000 
     14 C14        -0.1828    4.0847    1.3147 C.3       1 UNK         0.0000 
     15 C15        -1.7033    4.1092    0.9765 C.3       1 UNK         0.0000 
     16 N16        -2.1894    2.9820    0.1599 N.am      1 UNK         0.0000 
     17 C17        -2.4798    1.8024    0.7815 C.2       1 UNK         0.0000 
     18 O18        -2.5569    1.7470    2.0156 O.2       1 UNK         0.0000 
     19 C19        -2.7779    0.5448   -0.0939 C.3       1 UNK         0.0000 
     20 H20        -3.6910    0.7408   -0.6432 H         1 UNK         0.0000 
     21 N21        -2.9856   -0.6517    0.6884 N.2       1 UNK         0.0000 
     22 C22        -2.0591   -1.4768    0.3752 C.2       1 UNK         0.0000 
     23 O23        -1.2191   -1.0557   -0.6386 O.3       1 UNK         0.0000 
     24 C24        -1.6059    0.2396   -1.0217 C.3       1 UNK         0.0000 
     25 C25        -1.8458   -2.8252    0.9435 C.ar      1 UNK         0.0000 
     26 C26        -1.0973   -3.8132    0.2802 C.ar      1 UNK         0.0000 
     27 O27        -0.5844   -3.6105   -0.8525 O.co2     1 UNK         0.0000 
     28 C28        -0.9340   -5.0728    0.8517 C.ar      1 UNK         0.0000 
     29 C29        -1.5299   -5.3789    2.0712 C.ar      1 UNK         0.0000 
     30 C30        -2.2815   -4.4069    2.7343 C.ar      1 UNK         0.0000 
     31 C31        -2.4417   -3.1375    2.1750 C.ar      1 UNK         0.0000 
     32 C32        -2.6775    3.3036   -1.2108 C.3       1 UNK         0.0000 
     33 C33        -1.8024    4.2221   -2.1039 C.3       1 UNK         0.0000 
     34 C34        -0.4448    3.6639   -2.5272 C.3       1 UNK         0.0000 
     35 N35        -0.5150    2.4203   -3.2904 N.am      1 UNK         0.0000 
     36 C36         0.6039    1.8349   -3.7560 C.2       1 UNK         0.0000 
     37 O37         1.6441    2.4729   -3.9693 O.2       1 UNK         0.0000 
     38 C38         0.4976    0.3487   -3.9940 C.ar      1 UNK         0.0000 
     39 C39         0.9445   -0.6013   -3.0630 C.ar      1 UNK         0.0000 
     40 O40         1.1531   -0.3579   -1.8528 O.co2     1 UNK         0.0000 
     41 C41         0.9942   -1.9539   -3.3378 C.ar      1 UNK         0.0000 
     42 O42         1.4317   -2.6691   -2.3876 O.co2     1 UNK         0.0000 
     43 C43         0.4378   -2.4426   -4.5099 C.ar      1 UNK         0.0000 
     44 C44        -0.1472   -1.5376   -5.3997 C.ar      1 UNK         0.0000 
     45 C45        -0.0832   -0.1537   -5.1655 C.ar      1 UNK         0.0000 
     46 H46         1.2285   -0.8738    5.2054 H         1 UNK         0.0000 
     47 H47         1.8416   -3.2267    4.9889 H         1 UNK         0.0000 
     48 H48         2.3151   -4.1898    2.7511 H         1 UNK         0.0000 
     49 H49         0.7723    1.3478    1.4512 H         1 UNK         0.0000 
     50 H50        -0.4848    3.2960    3.3018 H         1 UNK         0.0000 
     51 H51         1.1447    3.7728    2.9819 H         1 UNK         0.0000 
     52 H52         0.4423    3.8841    0.4466 H         1 UNK         0.0000 
     53 H53         0.0450    5.1179    1.5830 H         1 UNK         0.0000 
     54 H54        -2.2886    4.1603    1.9001 H         1 UNK         0.0000 
     55 H55        -1.9423    5.0507    0.4703 H         1 UNK         0.0000 
     56 H56        -1.9029    0.2315   -2.0667 H         1 UNK         0.0000 
     57 H57        -0.7651    0.9294   -0.9041 H         1 UNK         0.0000 
     58 H58        -0.3587   -5.8093    0.3188 H         1 UNK         0.0000 
     59 H59        -1.4031   -6.3617    2.4914 H         1 UNK         0.0000 
     60 H60        -2.7496   -4.6217    3.6792 H         1 UNK         0.0000 
     61 H61        -3.0238   -2.3930    2.6920 H         1 UNK         0.0000 
     62 H62        -3.6596    3.7715   -1.1097 H         1 UNK         0.0000 
     63 H63        -2.8545    2.3908   -1.7773 H         1 UNK         0.0000 
     64 H64        -2.3432    4.4301   -3.0279 H         1 UNK         0.0000 
     65 H65        -1.6570    5.2028   -1.6385 H         1 UNK         0.0000 
     66 H66         0.1291    4.4460   -3.0313 H         1 UNK         0.0000 
     67 H67         0.1343    3.4262   -1.6372 H         1 UNK         0.0000 
     68 H68        -1.3491    1.8590   -3.2556 H         1 UNK         0.0000 
     69 H69         0.3633   -3.5071   -4.6807 H         1 UNK         0.0000 
     70 H70        -0.6342   -1.9049   -6.2872 H         1 UNK         0.0000 
     71 H71        -0.5009    0.5224   -5.8937 H         1 UNK         0.0000 
@<TRIPOS>BOND
     1    1    6 nc   
     2    1    8 nc   
     3    1   23 nc   
     4    1   27 nc   
     5    1   40 nc   
     6    1   42 nc   
     7    2   46 1    
     8    2    3 ar   
     9    2    9 ar   
    10    3   47 1    
    11    3    4 ar   
    12    4    5 ar   
    13    4   48 1    
    14    5    7 ar   
    15    5    6 1    
    16    7    9 ar   
    17    7    8 1    
    18    9   10 1    
    19   10   11 2    
    20   10   12 am   BACKBONE|DICT|INTERRES
    21   12   13 1    
    22   12   49 1    
    23   13   51 1    
    24   13   50 1    
    25   13   14 1    
    26   14   53 1    
    27   14   15 1    
    28   14   52 1    
    29   15   54 1    
    30   15   16 1    
    31   15   55 1    
    32   16   17 am   BACKBONE|DICT|INTERRES
    33   16   32 1    
    34   17   18 2    
    35   17   19 1    
    36   19   20 1    
    37   19   21 1    
    38   19   24 1    
    39   21   22 2    
    40   22   25 1    
    41   22   23 1    
    42   23   24 1    
    43   24   57 1    
    44   24   56 1    
    45   25   31 ar   
    46   25   26 ar   
    47   26   28 ar   
    48   26   27 1    
    49   28   29 ar   
    50   28   58 1    
    51   29   59 1    
    52   29   30 ar   
    53   30   60 1    
    54   30   31 ar   
    55   31   61 1    
    56   32   62 1    
    57   32   33 1    
    58   32   63 1    
    59   33   65 1    
    60   33   34 1    
    61   33   64 1    
    62   34   67 1    
    63   34   35 1    
    64   34   66 1    
    65   35   36 am   BACKBONE|DICT|INTERRES
    66   35   68 1    
    67   36   37 2    
    68   36   38 1    
    69   38   39 ar   
    70   38   45 ar   
    71   39   40 1    
    72   39   41 ar   
    73   41   42 1    
    74   41   43 ar   
    75   43   44 ar   
    76   43   69 1    
    77   44   45 ar   
    78   44   70 1    
    79   45   71 1    
@<TRIPOS>SUBSTRUCTURE
     1 UNK         1 GROUP             0       ****    0 ROOT    
@<TRIPOS>MOLECULE
201_c1
109   117    1
SMALL
USER_CHARGES


@<TRIPOS>ATOM
      1 Fe1         0.1133    5.2905    0.1028 Fe        1 UNK         0.0000 
      2 C2          2.7034    4.1514    4.5759 C.ar      1 UNK         0.0000 
      3 C3          2.3933    5.4981    4.8359 C.ar      1 UNK         0.0000 
      4 C4          1.9642    6.3247    3.8015 C.ar      1 UNK         0.0000 
      5 C5          1.7966    5.7962    2.5278 C.ar      1 UNK         0.0000 
      6 O6          1.3205    6.4610    1.5693 O.co2     1 UNK         0.0000 
      7 C7          2.0070    4.4243    2.3014 C.ar      1 UNK         0.0000 
      8 O8          1.5653    4.0041    1.1900 O.co2     1 UNK         0.0000 
      9 C9          2.5492    3.5959    3.2943 C.ar      1 UNK         0.0000 
     10 C10         2.9977    2.1624    3.0321 C.2       1 UNK         0.0000 
     11 O11         3.5499    1.7882    1.9974 O.2       1 UNK         0.0000 
     12 N12         2.8354    1.3019    4.0662 N.am      1 UNK         0.0000 
     13 C13         3.0829   -0.1484    3.9575 C.3       1 UNK         0.0000 
     14 H14         3.9054   -0.3179    3.2571 H         1 UNK         0.0000 
     15 C15         3.5113   -0.7593    5.3022 C.3       1 UNK         0.0000 
     16 C16         1.8024   -0.8350    3.4665 C.2       1 UNK         0.0000 
     17 O17         0.7433   -0.5832    4.0454 O.2       1 UNK         0.0000 
     18 N18         1.9223   -1.7485    2.4776 N.am      1 UNK         0.0000 
     19 C19         0.7891   -2.3644    1.7303 C.3       1 UNK         0.0000 
     20 H20         0.4503   -1.5680    1.0589 H         1 UNK         0.0000 
     21 C21         1.2357   -3.5146    0.7669 C.3       1 UNK         0.0000 
     22 H22         2.1292   -3.1419    0.2539 H         1 UNK         0.0000 
     23 C23         1.5850   -4.8642    1.4283 C.3       1 UNK         0.0000 
     24 O24         0.1988   -3.7250   -0.1946 O.3       1 UNK         0.0000 
     25 C25         0.4480   -3.9588   -1.4927 C.2       1 UNK         0.0000 
     26 O26         1.5596   -4.2633   -1.9345 O.2       1 UNK         0.0000 
     27 C27        -0.8052   -3.8010   -2.3784 C.3       1 UNK         0.0000 
     28 H28        -0.6314   -4.5497   -3.1594 H         1 UNK         0.0000 
     29 N29        -0.8673   -2.5442   -3.1940 N.am      1 UNK         0.0000 
     30 C30        -0.2627   -1.3441   -3.0452 C.2       1 UNK         0.0000 
     31 O31         0.4334   -1.0974   -2.0692 O.2       1 UNK         0.0000 
     32 C32        -0.3519   -0.4067   -4.2896 C.3       1 UNK         0.0000 
     33 H33        -1.1541   -0.7762   -4.9351 H         1 UNK         0.0000 
     34 C34         0.9432   -0.5507   -5.1428 C.3       1 UNK         0.0000 
     35 N35        -0.6665    1.0253   -4.0372 N.am      1 UNK         0.0000 
     36 C36         0.1760    1.9780   -3.5558 C.2       1 UNK         0.0000 
     37 O37         1.3436    1.7057   -3.2881 O.2       1 UNK         0.0000 
     38 C38        -0.3817    3.4111   -3.5341 C.ar      1 UNK         0.0000 
     39 C39         0.0324    4.4113   -2.6288 C.ar      1 UNK         0.0000 
     40 O40         0.7897    4.1725   -1.6576 O.co2     1 UNK         0.0000 
     41 C41        -0.4717    5.7218   -2.6772 C.ar      1 UNK         0.0000 
     42 O42        -0.1484    6.5297   -1.7560 O.co2     1 UNK         0.0000 
     43 C43        -1.4099    6.0643   -3.6497 C.ar      1 UNK         0.0000 
     44 C44        -1.8782    5.0803   -4.5199 C.ar      1 UNK         0.0000 
     45 C45        -1.3711    3.7790   -4.4600 C.ar      1 UNK         0.0000 
     46 C46        -2.1584   -4.2570   -1.6919 C.3       1 UNK         0.0000 
     47 H47        -2.9462   -4.1104   -2.4381 H         1 UNK         0.0000 
     48 C48        -2.1051   -5.7643   -1.3101 C.3       1 UNK         0.0000 
     49 O49        -2.5380   -3.4793   -0.5428 O.3       1 UNK         0.0000 
     50 C50        -3.7711   -3.5903    0.0592 C.2       1 UNK         0.0000 
     51 O51        -4.6881   -4.2904   -0.3794 O.2       1 UNK         0.0000 
     52 C52        -3.8690   -2.9005    1.4399 C.3       1 UNK         0.0000 
     53 H53        -4.7711   -3.2927    1.9134 H         1 UNK         0.0000 
     54 C54        -2.7346   -3.3690    2.4063 C.3       1 UNK         0.0000 
     55 H55        -2.9003   -2.8869    3.3783 H         1 UNK         0.0000 
     56 C56        -2.6549   -4.9062    2.6157 C.3       1 UNK         0.0000 
     57 O57        -1.5077   -2.8729    1.8999 O.3       1 UNK         0.0000 
     58 C58        -0.3731   -2.8518    2.6078 C.2       1 UNK         0.0000 
     59 O59        -0.2723   -3.2512    3.7726 O.2       1 UNK         0.0000 
     60 N60        -4.0661   -1.4117    1.4197 N.am      1 UNK         0.0000 
     61 C61        -4.8109   -0.7006    0.5428 C.2       1 UNK         0.0000 
     62 O62        -5.1742   -1.1483   -0.5529 O.2       1 UNK         0.0000 
     63 C63        -5.4516    0.6385    1.0266 C.3       1 UNK         0.0000 
     64 H64        -5.6880    1.1460    0.0857 H         1 UNK         0.0000 
     65 C65        -6.7736    0.3820    1.7545 C.3       1 UNK         0.0000 
     66 N66        -4.6762    1.6445    1.7852 N.am      1 UNK         0.0000 
     67 C67        -3.5047    2.1476    1.3495 C.2       1 UNK         0.0000 
     68 O68        -2.8825    1.5463    0.4824 O.2       1 UNK         0.0000 
     69 C69        -3.1539    3.5404    1.8696 C.ar      1 UNK         0.0000 
     70 C70        -2.2552    4.3828    1.2060 C.ar      1 UNK         0.0000 
     71 O71        -1.4234    4.0071    0.3471 O.co2     1 UNK         0.0000 
     72 C72        -2.0912    5.7245    1.5535 C.ar      1 UNK         0.0000 
     73 O73        -1.2448    6.3677    0.8857 O.co2     1 UNK         0.0000 
     74 C74        -2.7219    6.2576    2.6635 C.ar      1 UNK         0.0000 
     75 C75        -3.5338    5.4216    3.4235 C.ar      1 UNK         0.0000 
     76 C76        -3.7673    4.0913    3.0193 C.ar      1 UNK         0.0000 
     77 H77         3.0859    3.5450    5.3896 H         1 UNK         0.0000 
     78 H78         2.4973    5.9047    5.8398 H         1 UNK         0.0000 
     79 H79         1.6732    7.3550    3.9799 H         1 UNK         0.0000 
     80 H80         2.2228    1.6341    4.7945 H         1 UNK         0.0000 
     81 H81         4.4050   -0.2871    5.7035 H         1 UNK         0.0000 
     82 H82         2.7136   -0.6771    6.0344 H         1 UNK         0.0000 
     83 H83         3.7275   -1.8228    5.1880 H         1 UNK         0.0000 
     84 H84         2.7748   -1.6611    1.9412 H         1 UNK         0.0000 
     85 H85         2.3677   -4.7250    2.1790 H         1 UNK         0.0000 
     86 H86         0.7161   -5.2965    1.9232 H         1 UNK         0.0000 
     87 H87         1.9286   -5.5862    0.6885 H         1 UNK         0.0000 
     88 H88        -1.5101   -2.5715   -3.9656 H         1 UNK         0.0000 
     89 H89         0.9245    0.0620   -6.0488 H         1 UNK         0.0000 
     90 H90         1.8283   -0.2599   -4.5733 H         1 UNK         0.0000 
     91 H91         1.1286   -1.5876   -5.4402 H         1 UNK         0.0000 
     92 H92        -1.6371    1.3252   -4.0786 H         1 UNK         0.0000 
     93 H93        -1.8158    7.0674   -3.6492 H         1 UNK         0.0000 
     94 H94        -2.6730    5.3399   -5.2134 H         1 UNK         0.0000 
     95 H95        -1.7855    3.0515   -5.1466 H         1 UNK         0.0000 
     96 H96        -3.0618   -6.1374   -0.9556 H         1 UNK         0.0000 
     97 H97        -1.8225   -6.3789   -2.1646 H         1 UNK         0.0000 
     98 H98        -1.3827   -5.9458   -0.5165 H         1 UNK         0.0000 
     99 H99        -3.6127   -5.2886    2.9630 H         1 UNK         0.0000 
    100 H100       -1.9042   -5.1934    3.3537 H         1 UNK         0.0000 
    101 H101       -2.4012   -5.4150    1.6903 H         1 UNK         0.0000 
    102 H102       -3.8176   -0.8984    2.2599 H         1 UNK         0.0000 
    103 H103       -7.3727   -0.3241    1.1686 H         1 UNK         0.0000 
    104 H104       -7.3516    1.3035    1.8619 H         1 UNK         0.0000 
    105 H105       -6.5825   -0.0488    2.7387 H         1 UNK         0.0000 
    106 H106       -5.1296    2.2342    2.4647 H         1 UNK         0.0000 
    107 H107       -2.4724    7.2660    2.9483 H         1 UNK         0.0000 
    108 H108       -3.9520    5.8358    4.3356 H         1 UNK         0.0000 
    109 H109       -4.3913    3.4858    3.6535 H         1 UNK         0.0000 
@<TRIPOS>BOND
     1    1    6 nc   
     2    1    8 nc   
     3    1   40 nc   
     4    1   42 nc   
     5    1   71 nc   
     6    1   73 nc   
     7    2    3 ar   
     8    2   77 1    
     9    2    9 ar   
    10    3   78 1    
    11    3    4 ar   
    12    4   79 1    
    13    4    5 ar   
    14    5    6 1    
    15    5    7 ar   
    16    7    9 ar   
    17    7    8 1    
    18    9   10 1    
    19   10   12 am   BACKBONE|DICT|INTERRES
    20   10   11 2    
    21   12   80 1    
    22   12   13 1    
    23   13   14 1    
    24   13   15 1    
    25   13   16 1    
    26   15   81 1    
    27   15   82 1    
    28   15   83 1    
    29   16   17 2    
    30   16   18 am   BACKBONE|DICT|INTERRES
    31   18   19 1    
    32   18   84 1    
    33   19   20 1    
    34   19   58 1    
    35   19   21 1    
    36   21   22 1    
    37   21   23 1    
    38   21   24 1    
    39   23   86 1    
    40   23   85 1    
    41   23   87 1    
    42   24   25 1    
    43   25   26 2    
    44   25   27 1    
    45   27   28 1    
    46   27   46 1    
    47   27   29 1    
    48   29   30 am   BACKBONE|DICT|INTERRES
    49   29   88 1    
    50   30   31 2    
    51   30   32 1    
    52   32   33 1    
    53   32   35 1    
    54   32   34 1    
    55   34   90 1    
    56   34   89 1    
    57   34   91 1    
    58   35   36 am   BACKBONE|DICT|INTERRES
    59   35   92 1    
    60   36   37 2    
    61   36   38 1    
    62   38   39 ar   
    63   38   45 ar   
    64   39   40 1    
    65   39   41 ar   
    66   41   42 1    
    67   41   43 ar   
    68   43   44 ar   
    69   43   93 1    
    70   44   45 ar   
    71   44   94 1    
    72   45   95 1    
    73   46   47 1    
    74   46   48 1    
    75   46   49 1    
    76   48   96 1    
    77   48   98 1    
    78   48   97 1    
    79   49   50 1    
    80   50   52 1    
    81   50   51 2    
    82   52   60 1    
    83   52   53 1    
    84   52   54 1    
    85   54   56 1    
    86   54   55 1    
    87   54   57 1    
    88   56   99 1    
    89   56  100 1    
    90   56  101 1    
    91   57   58 1    
    92   58   59 2    
    93   60  102 1    
    94   60   61 am   BACKBONE|DICT|INTERRES
    95   61   63 1    
    96   61   62 2    
    97   63   64 1    
    98   63   65 1    
    99   63   66 1    
   100   65  104 1    
   101   65  105 1    
   102   65  103 1    
   103   66  106 1    
   104   66   67 am   BACKBONE|DICT|INTERRES
   105   67   69 1    
   106   67   68 2    
   107   69   76 ar   
   108   69   70 ar   
   109   70   72 ar   
   110   70   71 1    
   111   72   74 ar   
   112   72   73 1    
   113   74  107 1    
   114   74   75 ar   
   115   75  108 1    
   116   75   76 ar   
   117   76  109 1    
@<TRIPOS>SUBSTRUCTURE
     1 UNK         1 GROUP             0       ****    0 ROOT    
@<TRIPOS>MOLECULE
204_c1
80   87    1
SMALL
USER_CHARGES


@<TRIPOS>ATOM
      1 Fe1         0.0389   -0.7682   -2.4883 Fe        1 UNK         0.0000 
      2 C2          5.2931    1.7120   -2.7964 C.ar      1 UNK         0.0000 
      3 C3          4.8176    2.1612   -4.0236 C.ar      1 UNK         0.0000 
      4 C4          3.5593    1.7714   -4.4680 C.ar      1 UNK         0.0000 
      5 C5          2.7780    0.8757   -3.7365 C.ar      1 UNK         0.0000 
      6 O6          1.6542    0.5740   -4.2821 O.co2     1 UNK         0.0000 
      7 C7          3.2697    0.3782   -2.4899 C.ar      1 UNK         0.0000 
      8 O8          2.6352   -0.5145   -1.8108 O.co2     1 UNK         0.0000 
      9 C9          4.5234    0.8606   -1.9865 C.ar      1 UNK         0.0000 
     10 C10         5.0443    0.5230   -0.5850 C.2       1 UNK         0.0000 
     11 O11         6.2389    0.5402   -0.2695 O.2       1 UNK         0.0000 
     12 N12         4.0739    0.2695    0.2957 N.am      1 UNK         0.0000 
     13 C13         4.1555   -0.2700    1.6435 C.3       1 UNK         0.0000 
     14 C14         2.7767   -0.8039    2.0934 C.3       1 UNK         0.0000 
     15 C15         1.7651    0.3059    2.4698 C.3       1 UNK         0.0000 
     16 N16         0.3156   -0.0409    2.4622 N.am      1 UNK         0.0000 
     17 C17        -0.4109    0.2970    1.3527 C.2       1 UNK         0.0000 
     18 O18         0.0960    0.1999    0.2253 O.co2     1 UNK         0.0000 
     19 C19        -1.8731    0.8924    1.4025 C.3       1 UNK         0.0000 
     20 H20        -2.4721    0.2301    0.7738 H         1 UNK         0.0000 
     21 C21        -2.5858    1.0301    2.7995 C.3       1 UNK         0.0000 
     22 H22        -3.5027    1.5933    2.6075 H         1 UNK         0.0000 
     23 O23        -3.1194   -0.1485    3.3658 O.3       1 UNK         0.0000 
     24 C24        -1.8623    1.8318    3.8970 C.3       1 UNK         0.0000 
     25 N25        -1.8602    2.2319    0.7777 N.am      1 UNK         0.0000 
     26 C26        -2.8894    2.8562    0.1941 C.2       1 UNK         0.0000 
     27 O27        -3.1088    4.0309    0.5062 O.2       1 UNK         0.0000 
     28 C28        -3.7944    2.1062   -0.7719 C.ar      1 UNK         0.0000 
     29 C29        -3.2856    1.2145   -1.7426 C.ar      1 UNK         0.0000 
     30 O30        -2.0527    1.0894   -1.9763 O.co2     1 UNK         0.0000 
     31 C31        -4.1505    0.4767   -2.5499 C.ar      1 UNK         0.0000 
     32 C32        -5.5283    0.6781   -2.4735 C.ar      1 UNK         0.0000 
     33 C33        -6.0392    1.6279   -1.5974 C.ar      1 UNK         0.0000 
     34 C34        -5.1825    2.3360   -0.7521 C.ar      1 UNK         0.0000 
     35 C35        -0.0719   -1.1701    3.3369 C.3       1 UNK         0.0000 
     36 C36         0.2496   -2.5737    2.7599 C.3       1 UNK         0.0000 
     37 C37        -0.7928   -3.6646    3.0909 C.3       1 UNK         0.0000 
     38 C38        -0.6460   -4.9458    2.2378 C.3       1 UNK         0.0000 
     39 N39        -0.8738   -4.7058    0.8150 N.am      1 UNK         0.0000 
     40 C40        -1.0471   -5.6013   -0.1586 C.2       1 UNK         0.0000 
     41 O41        -1.0730   -6.8128    0.0889 O.2       1 UNK         0.0000 
     42 C42        -1.2517   -5.0408   -1.5742 C.ar      1 UNK         0.0000 
     43 C43        -1.0263   -3.6721   -1.9597 C.ar      1 UNK         0.0000 
     44 O44        -0.6281   -2.8207   -1.0716 O.co2     1 UNK         0.0000 
     45 C45        -1.2564   -3.2963   -3.3259 C.ar      1 UNK         0.0000 
     46 O46        -1.1225   -2.1334   -3.8454 O.co2     1 UNK         0.0000 
     47 C47        -1.6840   -4.2564   -4.2436 C.ar      1 UNK         0.0000 
     48 C48        -1.9115   -5.5672   -3.8637 C.ar      1 UNK         0.0000 
     49 C49        -1.7005   -5.9515   -2.5491 C.ar      1 UNK         0.0000 
     50 H50         6.2667    2.0338   -2.4565 H         1 UNK         0.0000 
     51 H51         5.4109    2.8175   -4.6389 H         1 UNK         0.0000 
     52 H52         3.1872    2.1522   -5.4117 H         1 UNK         0.0000 
     53 H53         3.2726    0.0287   -0.3086 H         1 UNK         0.0000 
     54 H54         4.9007   -1.0653    1.7022 H         1 UNK         0.0000 
     55 H55         4.5057    0.5147    2.3165 H         1 UNK         0.0000 
     56 H56         2.3700   -1.4343    1.2998 H         1 UNK         0.0000 
     57 H57         2.9286   -1.4528    2.9548 H         1 UNK         0.0000 
     58 H58         2.0316    0.7099    3.4482 H         1 UNK         0.0000 
     59 H59         1.9262    1.1376    1.7808 H         1 UNK         0.0000 
     60 H60        -4.0727   -0.0501    3.4244 H         1 UNK         0.0000 
     61 H61        -0.9871    1.3148    4.2843 H         1 UNK         0.0000 
     62 H62        -2.5249    2.0110    4.7423 H         1 UNK         0.0000 
     63 H63        -1.5423    2.8049    3.5240 H         1 UNK         0.0000 
     64 H64        -1.1558    2.8434    1.1375 H         1 UNK         0.0000 
     65 H65        -3.7480   -0.2300   -3.2680 H         1 UNK         0.0000 
     66 H66        -6.1741    0.1162   -3.1360 H         1 UNK         0.0000 
     67 H67        -7.0979    1.8200   -1.5888 H         1 UNK         0.0000 
     68 H68        -5.5961    3.0765   -0.0811 H         1 UNK         0.0000 
     69 H69         0.3787   -1.0686    4.3271 H         1 UNK         0.0000 
     70 H70        -1.1359   -1.1579    3.5181 H         1 UNK         0.0000 
     71 H71         0.3465   -2.5059    1.6750 H         1 UNK         0.0000 
     72 H72         1.2245   -2.9082    3.1122 H         1 UNK         0.0000 
     73 H73        -1.8010   -3.2689    2.9552 H         1 UNK         0.0000 
     74 H74        -0.7274   -3.9328    4.1473 H         1 UNK         0.0000 
     75 H75         0.3715   -5.3319    2.3368 H         1 UNK         0.0000 
     76 H76        -1.3177   -5.7233    2.6127 H         1 UNK         0.0000 
     77 H77        -0.7613   -3.7827    0.3732 H         1 UNK         0.0000 
     78 H78        -1.8514   -3.9964   -5.2820 H         1 UNK         0.0000 
     79 H79        -2.2544   -6.2762   -4.6001 H         1 UNK         0.0000 
     80 H80        -1.8899   -6.9778   -2.2766 H         1 UNK         0.0000 
@<TRIPOS>BOND
     1    1    6 nc   
     2    1    8 nc   
     3    1   18 nc   
     4    1   30 nc   
     5    1   44 nc   
     6    1   46 nc   
     7    2   50 1    
     8    2    9 ar   
     9    2    3 ar   
    10    3    4 ar   
    11    3   51 1    
    12    4    5 ar   
    13    4   52 1    
    14    5    7 ar   
    15    5    6 1    
    16    7    9 ar   
    17    7    8 1    
    18    9   10 1    
    19   10   11 2    
    20   10   12 am   BACKBONE|DICT|INTERRES
    21   12   13 1    
    22   12   53 1    
    23   13   14 1    
    24   13   55 1    
    25   13   54 1    
    26   14   15 1    
    27   14   57 1    
    28   14   56 1    
    29   15   16 1    
    30   15   58 1    
    31   15   59 1    
    32   16   35 1    
    33   16   17 am   BACKBONE|DICT|INTERRES
    34   17   19 1    
    35   17   18 2    
    36   19   20 1    
    37   19   21 1    
    38   19   25 1    
    39   21   22 1    
    40   21   23 1    
    41   21   24 1    
    42   23   60 1    
    43   24   61 1    
    44   24   62 1    
    45   24   63 1    
    46   25   64 1    
    47   25   26 am   BACKBONE|DICT|INTERRES
    48   26   27 2    
    49   26   28 1    
    50   28   34 ar   
    51   28   29 ar   
    52   29   30 1    
    53   29   31 ar   
    54   31   32 ar   
    55   31   65 1    
    56   32   33 ar   
    57   32   66 1    
    58   33   67 1    
    59   33   34 ar   
    60   34   68 1    
    61   35   69 1    
    62   35   36 1    
    63   35   70 1    
    64   36   37 1    
    65   36   72 1    
    66   36   71 1    
    67   37   74 1    
    68   37   38 1    
    69   37   73 1    
    70   38   76 1    
    71   38   39 1    
    72   38   75 1    
    73   39   40 am   BACKBONE|DICT|INTERRES
    74   39   77 1    
    75   40   41 2    
    76   40   42 1    
    77   42   43 ar   
    78   42   49 ar   
    79   43   45 ar   
    80   43   44 1    
    81   45   47 ar   
    82   45   46 1    
    83   47   48 ar   
    84   47   78 1    
    85   48   49 ar   
    86   48   79 1    
    87   49   80 1    
@<TRIPOS>SUBSTRUCTURE
     1 UNK         1 GROUP             0       ****    0 ROOT    
@<TRIPOS>MOLECULE
205_c1
98   104    1
SMALL
USER_CHARGES


@<TRIPOS>ATOM
      1 Fe1        -0.6507    0.4588    2.5437 Fe        1 UNK         0.0000 
      2 C2          1.1154   -4.4800    4.9976 C.ar      1 UNK         0.0000 
      3 C3          0.9075   -3.1457    5.3174 C.ar      1 UNK         0.0000 
      4 C4          0.1545   -2.3119    4.4815 C.ar      1 UNK         0.0000 
      5 O5         -0.0390   -1.1342    4.9155 O.co2     1 UNK         0.0000 
      6 C6         -0.3617   -2.8018    3.2572 C.ar      1 UNK         0.0000 
      7 O7         -1.0211   -2.0986    2.3979 O.co2     1 UNK         0.0000 
      8 C8         -0.1626   -4.1532    2.9545 C.ar      1 UNK         0.0000 
      9 C9          0.5568   -5.0112    3.8276 C.ar      1 UNK         0.0000 
     10 C10         0.6757   -6.4890    3.5601 C.2       1 UNK         0.0000 
     11 O11         1.4287   -7.2185    4.2099 O.2       1 UNK         0.0000 
     12 N12        -0.1491   -7.0016    2.6302 N.am      1 UNK         0.0000 
     13 C13        -0.4818   -8.4288    2.6113 C.3       1 UNK         0.0000 
     14 C14        -0.8626   -8.9914    1.2368 C.3       1 UNK         0.0000 
     15 C15         0.3345   -9.3309    0.3241 C.3       1 UNK         0.0000 
     16 N16         1.0400   -8.0738   -0.2220 N.4       1 UNK         0.0000 
     17 H17         1.3896   -7.5243    0.5562 H         1 UNK         0.0000 
     18 H18         1.8381   -8.3617   -0.7736 H         1 UNK         0.0000 
     19 C19         0.1219   -7.2034   -1.0935 C.3       1 UNK         0.0000 
     20 C20         0.9238   -6.1601   -1.8749 C.3       1 UNK         0.0000 
     21 C21        -0.0433   -5.0651   -2.3446 C.3       1 UNK         0.0000 
     22 C22         0.5839   -3.9246   -3.1622 C.3       1 UNK         0.0000 
     23 N23        -0.1529   -2.6995   -2.8652 N.am      1 UNK         0.0000 
     24 C24         0.3439   -1.6466   -2.2134 C.2       1 UNK         0.0000 
     25 O25         1.5626   -1.5525   -2.0397 O.2       1 UNK         0.0000 
     26 C26        -0.7450   -0.6995   -1.6496 C.3       1 UNK         0.0000 
     27 C27        -0.4475    0.8046   -1.3081 C.3       1 UNK         0.0000 
     28 O28         0.5198    0.8701   -0.2862 O.co2     1 UNK         0.0000 
     29 C29        -1.8175    1.4232   -0.7730 C.2       1 UNK         0.0000 
     30 O30        -2.1405    1.1438    0.4247 O.co2     1 UNK         0.0000 
     31 O31        -2.5377    2.0728   -1.5821 O.co2     1 UNK         0.0000 
     32 C32         0.0116    1.5335   -2.6220 C.3       1 UNK         0.0000 
     33 C33         0.6471    2.9290   -2.5339 C.2       1 UNK         0.0000 
     34 O34         1.8704    3.0972   -2.4955 O.2       1 UNK         0.0000 
     35 N35        -0.1663    3.9452   -2.8475 N.am      1 UNK         0.0000 
     36 C36         0.2887    5.0778   -3.6553 C.3       1 UNK         0.0000 
     37 C37         1.1964    6.0971   -2.9362 C.3       1 UNK         0.0000 
     38 C38         0.4735    6.9828   -1.9138 C.3       1 UNK         0.0000 
     39 C39         1.3446    8.1918   -1.5483 C.3       1 UNK         0.0000 
     40 N40         0.6311    9.0747   -0.5142 N.4       1 UNK         0.0000 
     41 H41        -0.3515    9.1220   -0.7465 H         1 UNK         0.0000 
     42 H42         1.0202   10.0016   -0.5644 H         1 UNK         0.0000 
     43 C43         0.7919    8.5964    0.9314 C.3       1 UNK         0.0000 
     44 C44         0.1420    9.6193    1.8913 C.3       1 UNK         0.0000 
     45 C45         0.3029    9.2958    3.3948 C.3       1 UNK         0.0000 
     46 N46        -0.0647    7.9191    3.6941 N.am      1 UNK         0.0000 
     47 C47         0.7320    6.8541    3.5106 C.2       1 UNK         0.0000 
     48 O48         1.9222    6.9986    3.2371 O.2       1 UNK         0.0000 
     49 C49         0.0257    5.5257    3.5387 C.ar      1 UNK         0.0000 
     50 C50         0.7837    4.3529    3.4419 C.ar      1 UNK         0.0000 
     51 C51         0.1880    3.0981    3.5782 C.ar      1 UNK         0.0000 
     52 O52         0.9989    2.1196    3.5640 O.co2     1 UNK         0.0000 
     53 C53        -1.2235    3.0125    3.7598 C.ar      1 UNK         0.0000 
     54 O54        -1.9076    1.9559    3.9691 O.co2     1 UNK         0.0000 
     55 C55        -1.9753    4.1813    3.7723 C.ar      1 UNK         0.0000 
     56 C56        -1.3715    5.4279    3.6732 C.ar      1 UNK         0.0000 
     57 H57         1.6595   -5.0945    5.7029 H         1 UNK         0.0000 
     58 H58         1.3246   -2.7299    6.2288 H         1 UNK         0.0000 
     59 H59        -0.5799   -4.5110    2.0182 H         1 UNK         0.0000 
     60 H60        -0.8467   -6.3196    2.3487 H         1 UNK         0.0000 
     61 H61        -1.2825   -8.6040    3.3342 H         1 UNK         0.0000 
     62 H62         0.3586   -9.0181    2.9924 H         1 UNK         0.0000 
     63 H63        -1.5925   -8.3417    0.7547 H         1 UNK         0.0000 
     64 H64        -1.4051   -9.9185    1.4170 H         1 UNK         0.0000 
     65 H65         1.1064   -9.8995    0.8459 H         1 UNK         0.0000 
     66 H66         0.0196   -9.8941   -0.5568 H         1 UNK         0.0000 
     67 H67        -0.4313   -7.8675   -1.7625 H         1 UNK         0.0000 
     68 H68        -0.5628   -6.7295   -0.3872 H         1 UNK         0.0000 
     69 H69         1.4214   -6.6111   -2.7353 H         1 UNK         0.0000 
     70 H70         1.7018   -5.7115   -1.2521 H         1 UNK         0.0000 
     71 H71        -0.8656   -5.4879   -2.9242 H         1 UNK         0.0000 
     72 H72        -0.5009   -4.6417   -1.4446 H         1 UNK         0.0000 
     73 H73         1.6423   -3.8278   -2.8928 H         1 UNK         0.0000 
     74 H74         0.5694   -4.1329   -4.2353 H         1 UNK         0.0000 
     75 H75        -1.1452   -2.6684   -3.0291 H         1 UNK         0.0000 
     76 H76        -1.0787   -1.1891   -0.7331 H         1 UNK         0.0000 
     77 H77        -1.6062   -0.7339   -2.3189 H         1 UNK         0.0000 
     78 H78         0.7696    0.9290   -3.1022 H         1 UNK         0.0000 
     79 H79        -0.8142    1.5580   -3.3304 H         1 UNK         0.0000 
     80 H80        -1.1518    3.7339   -2.7071 H         1 UNK         0.0000 
     81 H81        -0.5966    5.5775   -4.0515 H         1 UNK         0.0000 
     82 H82         0.8198    4.6906   -4.5316 H         1 UNK         0.0000 
     83 H83         2.0287    5.5859   -2.4469 H         1 UNK         0.0000 
     84 H84         1.6612    6.7135   -3.7058 H         1 UNK         0.0000 
     85 H85         0.2260    6.3798   -1.0366 H         1 UNK         0.0000 
     86 H86        -0.4741    7.3219   -2.3357 H         1 UNK         0.0000 
     87 H87         1.4884    8.8466   -2.4099 H         1 UNK         0.0000 
     88 H88         2.3226    7.9239   -1.1409 H         1 UNK         0.0000 
     89 H89         0.3121    7.6146    0.9537 H         1 UNK         0.0000 
     90 H90         1.8663    8.4914    1.1039 H         1 UNK         0.0000 
     91 H91        -0.9237    9.6956    1.6741 H         1 UNK         0.0000 
     92 H92         0.5649   10.6073    1.7216 H         1 UNK         0.0000 
     93 H93        -0.3309    9.9434    4.0059 H         1 UNK         0.0000 
     94 H94         1.3357    9.4568    3.7193 H         1 UNK         0.0000 
     95 H95        -0.9774    7.7033    4.0637 H         1 UNK         0.0000 
     96 H96         1.8573    4.4042    3.2860 H         1 UNK         0.0000 
     97 H97        -3.0498    4.1154    3.8850 H         1 UNK         0.0000 
     98 H98        -2.0185    6.2898    3.7381 H         1 UNK         0.0000 
@<TRIPOS>BOND
     1    1    5 nc   
     2    1    7 nc   
     3    1   28 nc   
     4    1   30 nc   
     5    1   52 nc   
     6    1   54 nc   
     7    2    3 ar   
     8    2   57 1    
     9    2    9 ar   
    10    3   58 1    
    11    3    4 ar   
    12    4    5 1    
    13    4    6 ar   
    14    6    7 1    
    15    6    8 ar   
    16    8    9 ar   
    17    8   59 1    
    18    9   10 1    
    19   10   11 2    
    20   10   12 am   BACKBONE|DICT|INTERRES
    21   12   13 1    
    22   12   60 1    
    23   13   62 1    
    24   13   61 1    
    25   13   14 1    
    26   14   64 1    
    27   14   15 1    
    28   14   63 1    
    29   15   65 1    
    30   15   16 1    
    31   15   66 1    
    32   16   17 1    
    33   16   18 1    
    34   16   19 1    
    35   19   68 1    
    36   19   20 1    
    37   19   67 1    
    38   20   70 1    
    39   20   21 1    
    40   20   69 1    
    41   21   72 1    
    42   21   22 1    
    43   21   71 1    
    44   22   23 1    
    45   22   73 1    
    46   22   74 1    
    47   23   24 am   BACKBONE|DICT|INTERRES
    48   23   75 1    
    49   24   25 2    
    50   24   26 1    
    51   26   27 1    
    52   26   76 1    
    53   26   77 1    
    54   27   29 1    
    55   27   28 1    
    56   27   32 1    
    57   29   30 1    
    58   29   31 2    
    59   32   33 1    
    60   32   78 1    
    61   32   79 1    
    62   33   34 2    
    63   33   35 am   BACKBONE|DICT|INTERRES
    64   35   36 1    
    65   35   80 1    
    66   36   37 1    
    67   36   81 1    
    68   36   82 1    
    69   37   83 1    
    70   37   38 1    
    71   37   84 1    
    72   38   39 1    
    73   38   85 1    
    74   38   86 1    
    75   39   88 1    
    76   39   40 1    
    77   39   87 1    
    78   40   43 1    
    79   40   41 1    
    80   40   42 1    
    81   43   89 1    
    82   43   90 1    
    83   43   44 1    
    84   44   45 1    
    85   44   91 1    
    86   44   92 1    
    87   45   46 1    
    88   45   94 1    
    89   45   93 1    
    90   46   47 am   BACKBONE|DICT|INTERRES
    91   46   95 1    
    92   47   48 2    
    93   47   49 1    
    94   49   56 ar   
    95   49   50 ar   
    96   50   51 ar   
    97   50   96 1    
    98   51   53 ar   
    99   51   52 1    
   100   53   55 ar   
   101   53   54 1    
   102   55   97 1    
   103   55   56 ar   
   104   56   98 1    
@<TRIPOS>SUBSTRUCTURE
     1 UNK         1 GROUP             0       ****    0 ROOT    
@<TRIPOS>MOLECULE
206_c1
103   109    1
SMALL
USER_CHARGES


@<TRIPOS>ATOM
      1 Fe1        -0.5163    0.7456   -2.0957 Fe        1 UNK         0.0000 
      2 C2         -1.4285   -4.2366   -3.7753 C.ar      1 UNK         0.0000 
      3 C3         -1.9294   -2.9590   -3.8690 C.ar      1 UNK         0.0000 
      4 C4         -1.1355   -1.8748   -3.5471 C.ar      1 UNK         0.0000 
      5 O5         -1.7088   -0.7590   -3.7242 O.co2     1 UNK         0.0000 
      6 C6          0.1906   -2.0558   -3.0792 C.ar      1 UNK         0.0000 
      7 O7          0.9079   -1.0582   -2.7595 O.co2     1 UNK         0.0000 
      8 C8          0.7216   -3.3618   -2.9376 C.ar      1 UNK         0.0000 
      9 S9          2.4281   -3.6477   -2.2536 S.3       1 UNK         0.0000 
     10 O10         2.3942   -4.7695   -1.2979 O.2       1 UNK         0.0000 
     11 O11         3.1927   -2.4398   -1.9449 O.2       1 UNK         0.0000 
     12 O12         3.1465   -4.1793   -3.6285 O.3       1 UNK         0.0000 
     13 C13        -0.1102   -4.4628   -3.3161 C.ar      1 UNK         0.0000 
     14 C14         0.3336   -5.9004   -3.2406 C.2       1 UNK         0.0000 
     15 O15         1.4412   -6.3258   -3.5613 O.2       1 UNK         0.0000 
     16 N16        -0.6210   -6.7293   -2.8022 N.am      1 UNK         0.0000 
     17 C17        -0.4937   -8.1735   -2.6707 C.3       1 UNK         0.0000 
     18 C18        -0.3666   -8.5712   -1.1967 C.3       1 UNK         0.0000 
     19 C19         0.8755   -7.9910   -0.4914 C.3       1 UNK         0.0000 
     20 N20         0.7076   -8.2456    1.0151 N.4       1 UNK         0.0000 
     21 H21         0.0016   -7.6107    1.3632 H         1 UNK         0.0000 
     22 H22         0.3522   -9.1834    1.1252 H         1 UNK         0.0000 
     23 C23         1.9691   -8.1030    1.8872 C.3       1 UNK         0.0000 
     24 C24         2.5406   -6.6798    1.8490 C.3       1 UNK         0.0000 
     25 C25         1.5134   -5.5792    2.1720 C.3       1 UNK         0.0000 
     26 C26         2.1497   -4.1867    2.3412 C.3       1 UNK         0.0000 
     27 N27         1.1431   -3.1475    2.1590 N.am      1 UNK         0.0000 
     28 C28         1.2594   -2.0867    1.3486 C.2       1 UNK         0.0000 
     29 O29         2.3349   -1.7974    0.8383 O.2       1 UNK         0.0000 
     30 C30        -0.0738   -1.4027    1.0037 C.3       1 UNK         0.0000 
     31 C31        -0.3070    0.1275    1.2664 C.3       1 UNK         0.0000 
     32 O32         0.4766    0.9247    0.3897 O.co2     1 UNK         0.0000 
     33 C33        -1.8497    0.3122    0.9343 C.2       1 UNK         0.0000 
     34 O34        -2.0936    0.5091   -0.2903 O.co2     1 UNK         0.0000 
     35 O35        -2.6942    0.0461    1.8252 O.co2     1 UNK         0.0000 
     36 C36        -0.0303    0.5054    2.7719 C.3       1 UNK         0.0000 
     37 C37        -0.1225    2.0036    3.1517 C.2       1 UNK         0.0000 
     38 O38        -1.0675    2.4686    3.7956 O.2       1 UNK         0.0000 
     39 N39         0.9296    2.7609    2.8084 N.am      1 UNK         0.0000 
     40 C40         1.0726    4.1889    3.0628 C.3       1 UNK         0.0000 
     41 C41         1.3001    4.9717    1.7640 C.3       1 UNK         0.0000 
     42 C42         1.1981    6.4799    1.9856 C.3       1 UNK         0.0000 
     43 N43         1.4554    7.2097    0.6576 N.4       1 UNK         0.0000 
     44 H44         0.7426    6.9228   -0.0036 H         1 UNK         0.0000 
     45 H45         2.3272    6.8914    0.2443 H         1 UNK         0.0000 
     46 C46         1.4343    8.7472    0.8086 C.3       1 UNK         0.0000 
     47 C47         1.6538    9.4498   -0.5432 C.3       1 UNK         0.0000 
     48 C48         0.4677    9.3848   -1.5286 C.3       1 UNK         0.0000 
     49 N49         0.0732    8.0185   -1.8429 N.am      1 UNK         0.0000 
     50 C50         0.8243    7.1654   -2.5501 C.2       1 UNK         0.0000 
     51 O51         1.9172    7.5111   -2.9804 O.2       1 UNK         0.0000 
     52 C52         0.2470    5.7793   -2.6453 C.ar      1 UNK         0.0000 
     53 C53         1.0446    4.5930   -2.6885 C.ar      1 UNK         0.0000 
     54 S54         2.9080    4.6302   -2.6451 S.3       1 UNK         0.0000 
     55 O55         3.4381    5.4204   -3.7660 O.2       1 UNK         0.0000 
     56 O56         3.5578    3.3800   -2.2742 O.2       1 UNK         0.0000 
     57 O57         3.1287    5.5161   -1.2713 O.3       1 UNK         0.0000 
     58 C58         0.3655    3.3522   -2.7533 C.ar      1 UNK         0.0000 
     59 O59         1.0364    2.2781   -2.8094 O.co2     1 UNK         0.0000 
     60 C60        -1.0455    3.3073   -2.7426 C.ar      1 UNK         0.0000 
     61 O61        -1.7307    2.2478   -2.7948 O.co2     1 UNK         0.0000 
     62 C62        -1.7904    4.4644   -2.6962 C.ar      1 UNK         0.0000 
     63 C63        -1.1658    5.6858   -2.6717 C.ar      1 UNK         0.0000 
     64 H64        -2.0762   -5.0389   -4.0916 H         1 UNK         0.0000 
     65 H65        -2.9450   -2.8034   -4.2116 H         1 UNK         0.0000 
     66 H66        -1.5212   -6.2889   -2.6601 H         1 UNK         0.0000 
     67 H67         0.3842   -8.5200   -3.2258 H         1 UNK         0.0000 
     68 H68        -1.3599   -8.6423   -3.1437 H         1 UNK         0.0000 
     69 H69        -1.2805   -8.2731   -0.6799 H         1 UNK         0.0000 
     70 H70        -0.3300   -9.6584   -1.1588 H         1 UNK         0.0000 
     71 H71         1.8010   -8.4729   -0.8147 H         1 UNK         0.0000 
     72 H72         0.9703   -6.9071   -0.5914 H         1 UNK         0.0000 
     73 H73         2.6797   -8.8550    1.5384 H         1 UNK         0.0000 
     74 H74         1.6338   -8.3691    2.8920 H         1 UNK         0.0000 
     75 H75         2.9899   -6.4823    0.8728 H         1 UNK         0.0000 
     76 H76         3.3639   -6.6270    2.5644 H         1 UNK         0.0000 
     77 H77         0.7836   -5.5232    1.3618 H         1 UNK         0.0000 
     78 H78         0.9552   -5.8210    3.0785 H         1 UNK         0.0000 
     79 H79         2.9394   -4.0797    1.5885 H         1 UNK         0.0000 
     80 H80         2.6603   -4.0891    3.3026 H         1 UNK         0.0000 
     81 H81         0.3021   -3.1644    2.7082 H         1 UNK         0.0000 
     82 H82        -0.2363   -1.6159   -0.0528 H         1 UNK         0.0000 
     83 H83        -0.8607   -1.9660    1.5108 H         1 UNK         0.0000 
     84 H84         0.9858    0.1970    3.0039 H         1 UNK         0.0000 
     85 H85        -0.6724   -0.0633    3.4404 H         1 UNK         0.0000 
     86 H86         1.4760    2.3030    2.0779 H         1 UNK         0.0000 
     87 H87         0.1798    4.5825    3.5583 H         1 UNK         0.0000 
     88 H88         1.8780    4.3644    3.7786 H         1 UNK         0.0000 
     89 H89         0.5613    4.6506    1.0247 H         1 UNK         0.0000 
     90 H90         2.2795    4.7131    1.3597 H         1 UNK         0.0000 
     91 H91         0.1965    6.7767    2.3090 H         1 UNK         0.0000 
     92 H92         1.9425    6.8476    2.6963 H         1 UNK         0.0000 
     93 H93         0.4721    9.0106    1.2542 H         1 UNK         0.0000 
     94 H94         2.2388    8.9824    1.5081 H         1 UNK         0.0000 
     95 H95         1.8680   10.5009   -0.3619 H         1 UNK         0.0000 
     96 H96         2.5532    9.0614   -1.0248 H         1 UNK         0.0000 
     97 H97        -0.4108    9.8676   -1.0991 H         1 UNK         0.0000 
     98 H98         0.6999    9.9104   -2.4600 H         1 UNK         0.0000 
     99 H99        -0.8971    7.7435   -1.7233 H         1 UNK         0.0000 
    100 H100       -2.8740    4.4127   -2.7105 H         1 UNK         0.0000 
    101 H101       -1.8110    6.5520   -2.6975 H         1 UNK         0.0000 
    102 H102        3.3662   -3.3510   -4.0961 H         1 UNK         0.0000 
    103 H103        3.6899    4.8796   -0.7805 H         1 UNK         0.0000 
@<TRIPOS>BOND
     1    1    5 nc   
     2    1    7 nc   
     3    1   32 nc   
     4    1   34 nc   
     5    1   59 nc   
     6    1   61 nc   
     7    2   13 ar   
     8    2    3 ar   
     9    2   64 1    
    10    3    4 ar   
    11    3   65 1    
    12    4    6 ar   
    13    4    5 1    
    14    6    8 ar   
    15    6    7 1    
    16    8    9 1    
    17    8   13 ar   
    18    9   11 2    
    19    9   10 2    
    20    9   12 1    
    21   12  102 1    
    22   13   14 1    
    23   14   16 am   BACKBONE|DICT|INTERRES
    24   14   15 2    
    25   16   17 1    
    26   16   66 1    
    27   17   18 1    
    28   17   67 1    
    29   17   68 1    
    30   18   70 1    
    31   18   69 1    
    32   18   19 1    
    33   19   20 1    
    34   19   71 1    
    35   19   72 1    
    36   20   22 1    
    37   20   21 1    
    38   20   23 1    
    39   23   74 1    
    40   23   24 1    
    41   23   73 1    
    42   24   25 1    
    43   24   76 1    
    44   24   75 1    
    45   25   26 1    
    46   25   78 1    
    47   25   77 1    
    48   26   80 1    
    49   26   27 1    
    50   26   79 1    
    51   27   81 1    
    52   27   28 am   BACKBONE|DICT|INTERRES
    53   28   29 2    
    54   28   30 1    
    55   30   31 1    
    56   30   83 1    
    57   30   82 1    
    58   31   32 1    
    59   31   36 1    
    60   31   33 1    
    61   33   35 2    
    62   33   34 1    
    63   36   84 1    
    64   36   37 1    
    65   36   85 1    
    66   37   38 2    
    67   37   39 am   BACKBONE|DICT|INTERRES
    68   39   40 1    
    69   39   86 1    
    70   40   87 1    
    71   40   88 1    
    72   40   41 1    
    73   41   42 1    
    74   41   89 1    
    75   41   90 1    
    76   42   91 1    
    77   42   92 1    
    78   42   43 1    
    79   43   46 1    
    80   43   44 1    
    81   43   45 1    
    82   46   93 1    
    83   46   94 1    
    84   46   47 1    
    85   47   95 1    
    86   47   48 1    
    87   47   96 1    
    88   48   97 1    
    89   48   49 1    
    90   48   98 1    
    91   49   99 1    
    92   49   50 am   BACKBONE|DICT|INTERRES
    93   50   51 2    
    94   50   52 1    
    95   52   63 ar   
    96   52   53 ar   
    97   53   54 1    
    98   53   58 ar   
    99   54   56 2    
   100   54   57 1    
   101   54   55 2    
   102   57  103 1    
   103   58   60 ar   
   104   58   59 1    
   105   60   62 ar   
   106   60   61 1    
   107   62  100 1    
   108   62   63 ar   
   109   63  101 1    
@<TRIPOS>SUBSTRUCTURE
     1 UNK         1 GROUP             0       ****    0 ROOT    
@<TRIPOS>MOLECULE
207_c1
102   108    1
SMALL
USER_CHARGES


@<TRIPOS>ATOM
      1 Fe1         0.4903   -0.3331    2.1183 Fe        1 UNK         0.0000 
      2 C2          1.9420    4.3771    3.7686 C.ar      1 UNK         0.0000 
      3 C3          2.3170    3.0451    3.8775 C.ar      1 UNK         0.0000 
      4 C4          1.4214    2.0477    3.5406 C.ar      1 UNK         0.0000 
      5 O5          1.7923    0.8331    3.6000 O.co2     1 UNK         0.0000 
      6 C6          0.1292    2.3821    3.1190 C.ar      1 UNK         0.0000 
      7 O7         -0.5911    1.4287    2.6800 O.co2     1 UNK         0.0000 
      8 C8         -0.3297    3.7194    3.1428 C.ar      1 UNK         0.0000 
      9 S9         -2.1319    4.0426    2.8146 S.3       1 UNK         0.0000 
     10 O10        -2.5184    5.4199    3.1631 O.2       1 UNK         0.0000 
     11 O11        -3.0189    2.9508    3.2247 O.2       1 UNK         0.0000 
     12 O12        -2.0428    3.9645    1.1790 O.3       1 UNK         0.0000 
     13 C13         0.6353    4.7440    3.3828 C.ar      1 UNK         0.0000 
     14 C14         0.4050    6.2403    3.2341 C.2       1 UNK         0.0000 
     15 O15         1.0013    7.0498    3.9541 O.2       1 UNK         0.0000 
     16 N16        -0.3906    6.7003    2.2453 N.am      1 UNK         0.0000 
     17 C17        -0.7255    8.1233    2.1325 C.3       1 UNK         0.0000 
     18 C18        -1.8541    8.4258    1.1303 C.3       1 UNK         0.0000 
     19 C19        -1.7319    7.7853   -0.2582 C.3       1 UNK         0.0000 
     20 N20        -0.3174    8.0422   -0.8154 N.4       1 UNK         0.0000 
     21 H21         0.3403    7.4623   -0.3044 H         1 UNK         0.0000 
     22 H22        -0.0843    9.0072   -0.6224 H         1 UNK         0.0000 
     23 C23        -0.1459    7.8140   -2.3302 C.3       1 UNK         0.0000 
     24 C24         0.2749    6.3700   -2.6433 C.3       1 UNK         0.0000 
     25 C25        -0.7694    5.2966   -2.2821 C.3       1 UNK         0.0000 
     26 C26        -0.4840    3.9400   -2.9430 C.3       1 UNK         0.0000 
     27 N27        -1.5566    2.9757   -2.7044 N.am      1 UNK         0.0000 
     28 C28        -1.4363    1.6873   -2.3463 C.2       1 UNK         0.0000 
     29 O29        -2.4361    0.9906   -2.5019 O.2       1 UNK         0.0000 
     30 C30        -0.0516    1.1792   -1.8611 C.3       1 UNK         0.0000 
     31 C31         0.1614   -0.2226   -1.1768 C.3       1 UNK         0.0000 
     32 O32        -0.6288   -0.3464   -0.0122 O.co2     1 UNK         0.0000 
     33 C33         1.6716   -0.2300   -0.7030 C.2       1 UNK         0.0000 
     34 O34         1.8026   -0.2406    0.5536 O.co2     1 UNK         0.0000 
     35 O35         2.5996   -0.0889   -1.5498 O.co2     1 UNK         0.0000 
     36 C36        -0.0426   -1.3773   -2.2193 C.3       1 UNK         0.0000 
     37 C37         0.0416   -2.8667   -1.7978 C.2       1 UNK         0.0000 
     38 O38         0.8437   -3.3257   -0.9779 O.2       1 UNK         0.0000 
     39 N39        -0.7740   -3.6862   -2.4936 N.am      1 UNK         0.0000 
     40 C40        -0.9602   -5.1027   -2.1944 C.3       1 UNK         0.0000 
     41 C41         0.2421   -5.9949   -2.5871 C.3       1 UNK         0.0000 
     42 C42         0.2408   -7.3285   -1.8162 C.3       1 UNK         0.0000 
     43 C43         1.4738   -8.2046   -2.1043 C.3       1 UNK         0.0000 
     44 N44         1.7216   -9.1230   -0.8945 N.4       1 UNK         0.0000 
     45 H45         0.8202   -9.4263   -0.5480 H         1 UNK         0.0000 
     46 H46         2.2345   -9.9416   -1.1842 H         1 UNK         0.0000 
     47 C47         2.4924   -8.4275    0.2449 C.3       1 UNK         0.0000 
     48 C48         2.1897   -9.1337    1.5765 C.3       1 UNK         0.0000 
     49 C49         2.6385   -8.3138    2.8107 C.3       1 UNK         0.0000 
     50 N50         2.0517   -6.9714    2.8751 N.am      1 UNK         0.0000 
     51 C51         0.7375   -6.7023    3.0169 C.2       1 UNK         0.0000 
     52 O52        -0.0745   -7.6277    3.0650 O.2       1 UNK         0.0000 
     53 C53         0.3148   -5.2494    3.0613 C.ar      1 UNK         0.0000 
     54 C54         1.2241   -4.1885    2.8683 C.ar      1 UNK         0.0000 
     55 C55         0.7626   -2.8685    2.8523 C.ar      1 UNK         0.0000 
     56 O56         1.4932   -1.8618    2.5996 O.co2     1 UNK         0.0000 
     57 C57        -0.5846   -2.5852    3.0357 C.ar      1 UNK         0.0000 
     58 O58        -0.9464   -1.3659    2.9271 O.co2     1 UNK         0.0000 
     59 C59        -1.4944   -3.6152    3.2587 C.ar      1 UNK         0.0000 
     60 C60        -1.0516   -4.9408    3.2715 C.ar      1 UNK         0.0000 
     61 H61         2.7040    5.1119    3.9882 H         1 UNK         0.0000 
     62 H62         3.3160    2.7697    4.1813 H         1 UNK         0.0000 
     63 H63        -1.1024    6.0328    1.9748 H         1 UNK         0.0000 
     64 H64        -1.0354    8.4944    3.1142 H         1 UNK         0.0000 
     65 H65         0.1851    8.6575    1.8505 H         1 UNK         0.0000 
     66 H66        -1.9358    9.5093    1.0310 H         1 UNK         0.0000 
     67 H67        -2.8028    8.1014    1.5633 H         1 UNK         0.0000 
     68 H68        -2.4548    8.2208   -0.9552 H         1 UNK         0.0000 
     69 H69        -1.8695    6.7044   -0.2155 H         1 UNK         0.0000 
     70 H70         0.6562    8.4994   -2.6145 H         1 UNK         0.0000 
     71 H71        -1.0697    8.1239   -2.8312 H         1 UNK         0.0000 
     72 H72         1.2219    6.1379   -2.1496 H         1 UNK         0.0000 
     73 H73         0.4823    6.3330   -3.7165 H         1 UNK         0.0000 
     74 H74        -1.7691    5.6280   -2.5754 H         1 UNK         0.0000 
     75 H75        -0.7736    5.1331   -1.2027 H         1 UNK         0.0000 
     76 H76         0.5005    3.5826   -2.6249 H         1 UNK         0.0000 
     77 H77        -0.3887    4.0620   -4.0245 H         1 UNK         0.0000 
     78 H78        -2.4973    3.1934   -2.9872 H         1 UNK         0.0000 
     79 H79         0.6249    1.2504   -2.7139 H         1 UNK         0.0000 
     80 H80         0.2972    1.9257   -1.1453 H         1 UNK         0.0000 
     81 H81         0.6549   -1.2566   -3.0432 H         1 UNK         0.0000 
     82 H82        -1.0255   -1.2308   -2.6616 H         1 UNK         0.0000 
     83 H83        -1.3680   -3.2364   -3.1729 H         1 UNK         0.0000 
     84 H84        -1.8654   -5.4732   -2.6790 H         1 UNK         0.0000 
     85 H85        -1.1542   -5.1786   -1.1178 H         1 UNK         0.0000 
     86 H86         0.2454   -6.1630   -3.6681 H         1 UNK         0.0000 
     87 H87         1.1754   -5.4681   -2.3596 H         1 UNK         0.0000 
     88 H88         0.1748   -7.0833   -0.7523 H         1 UNK         0.0000 
     89 H89        -0.6648   -7.8928   -2.0569 H         1 UNK         0.0000 
     90 H90         1.3114   -8.8555   -2.9666 H         1 UNK         0.0000 
     91 H91         2.3939   -7.6315   -2.2512 H         1 UNK         0.0000 
     92 H92         2.1570   -7.3879    0.2656 H         1 UNK         0.0000 
     93 H93         3.5526   -8.4627   -0.0179 H         1 UNK         0.0000 
     94 H94         2.6798  -10.1105    1.6074 H         1 UNK         0.0000 
     95 H95         1.1183   -9.3387    1.6581 H         1 UNK         0.0000 
     96 H96         3.7195   -8.1755    2.7752 H         1 UNK         0.0000 
     97 H97         2.4108   -8.8560    3.7330 H         1 UNK         0.0000 
     98 H98         2.6611   -6.1654    2.9114 H         1 UNK         0.0000 
     99 H99         2.2762   -4.3406    2.6879 H         1 UNK         0.0000 
    100 H100       -2.5330   -3.3704    3.3892 H         1 UNK         0.0000 
    101 H101       -1.7741   -5.7247    3.4280 H         1 UNK         0.0000 
    102 H102       -1.8729    3.0015    1.0234 H         1 UNK         0.0000 
@<TRIPOS>BOND
     1    1    5 nc   
     2    1    7 nc   
     3    1   32 nc   
     4    1   34 nc   
     5    1   56 nc   
     6    1   58 nc   
     7    2    3 ar   
     8    2   61 1    
     9    2   13 ar   
    10    3   62 1    
    11    3    4 ar   
    12    4    5 1    
    13    4    6 ar   
    14    6    7 1    
    15    6    8 ar   
    16    8   13 ar   
    17    8    9 1    
    18    9   11 2    
    19    9   10 2    
    20    9   12 1    
    21   12  102 1    
    22   13   14 1    
    23   14   15 2    
    24   14   16 am   BACKBONE|DICT|INTERRES
    25   16   17 1    
    26   16   63 1    
    27   17   64 1    
    28   17   18 1    
    29   17   65 1    
    30   18   67 1    
    31   18   19 1    
    32   18   66 1    
    33   19   69 1    
    34   19   20 1    
    35   19   68 1    
    36   20   22 1    
    37   20   21 1    
    38   20   23 1    
    39   23   24 1    
    40   23   70 1    
    41   23   71 1    
    42   24   25 1    
    43   24   72 1    
    44   24   73 1    
    45   25   75 1    
    46   25   26 1    
    47   25   74 1    
    48   26   27 1    
    49   26   76 1    
    50   26   77 1    
    51   27   28 am   BACKBONE|DICT|INTERRES
    52   27   78 1    
    53   28   29 2    
    54   28   30 1    
    55   30   31 1    
    56   30   80 1    
    57   30   79 1    
    58   31   33 1    
    59   31   32 1    
    60   31   36 1    
    61   33   34 1    
    62   33   35 2    
    63   36   37 1    
    64   36   81 1    
    65   36   82 1    
    66   37   38 2    
    67   37   39 am   BACKBONE|DICT|INTERRES
    68   39   40 1    
    69   39   83 1    
    70   40   85 1    
    71   40   41 1    
    72   40   84 1    
    73   41   87 1    
    74   41   42 1    
    75   41   86 1    
    76   42   88 1    
    77   42   43 1    
    78   42   89 1    
    79   43   44 1    
    80   43   90 1    
    81   43   91 1    
    82   44   45 1    
    83   44   47 1    
    84   44   46 1    
    85   47   92 1    
    86   47   48 1    
    87   47   93 1    
    88   48   95 1    
    89   48   49 1    
    90   48   94 1    
    91   49   50 1    
    92   49   97 1    
    93   49   96 1    
    94   50   51 am   BACKBONE|DICT|INTERRES
    95   50   98 1    
    96   51   52 2    
    97   51   53 1    
    98   53   60 ar   
    99   53   54 ar   
   100   54   55 ar   
   101   54   99 1    
   102   55   57 ar   
   103   55   56 1    
   104   57   59 ar   
   105   57   58 1    
   106   59   60 ar   
   107   59  100 1    
   108   60  101 1    
@<TRIPOS>SUBSTRUCTURE
     1 UNK         1 GROUP             0       ****    0 ROOT    
@<TRIPOS>MOLECULE
212_c1
77   84    1
SMALL
USER_CHARGES


@<TRIPOS>ATOM
      1 Fe1        -0.5457    2.3108    2.4444 Fe        1 UNK         0.0000 
      2 C2         -1.3158    4.3524   -2.3543 C.ar      1 UNK         0.0000 
      3 C3         -0.8747    5.4999   -1.6862 C.ar      1 UNK         0.0000 
      4 C4         -0.7263    5.4888   -0.2983 C.ar      1 UNK         0.0000 
      5 C5         -0.9840    4.3214    0.4149 C.ar      1 UNK         0.0000 
      6 O6         -0.7908    4.2943    1.6679 O.co2     1 UNK         0.0000 
      7 C7         -1.4193    3.1633   -0.2511 C.ar      1 UNK         0.0000 
      8 O8         -1.5798    2.1223    0.4601 O.co2     1 UNK         0.0000 
      9 C9         -1.6136    3.1624   -1.6529 C.ar      1 UNK         0.0000 
     10 C10        -2.0488    1.9254   -2.4349 C.2       1 UNK         0.0000 
     11 O11        -2.8999    1.1136   -2.0553 O.2       1 UNK         0.0000 
     12 N12        -1.3841    1.7320   -3.5917 N.am      1 UNK         0.0000 
     13 C13        -1.1141    0.4007   -4.1429 C.3       1 UNK         0.0000 
     14 C14         0.1409   -0.1615   -3.4570 C.3       1 UNK         0.0000 
     15 C15         0.4905   -1.6163   -3.7912 C.3       1 UNK         0.0000 
     16 C16         1.7848   -2.0755   -3.0775 C.3       1 UNK         0.0000 
     17 N17         1.7383   -1.9499   -1.6154 N.am      1 UNK         0.0000 
     18 C18         1.0195   -2.7688   -0.8339 C.2       1 UNK         0.0000 
     19 O19         0.3904   -3.7178   -1.3173 O.2       1 UNK         0.0000 
     20 C20         1.0756   -2.5455    0.7106 C.3       1 UNK         0.0000 
     21 H21         0.5241   -1.6223    0.8926 H         1 UNK         0.0000 
     22 N22         2.4820   -2.4909    1.1604 N.am      1 UNK         0.0000 
     23 C23         3.3320   -1.4834    1.4365 C.2       1 UNK         0.0000 
     24 O24         4.5268   -1.7927    1.4093 O.2       1 UNK         0.0000 
     25 C25         2.8905   -0.1310    1.7926 C.2       1 UNK         0.0000 
     26 C26         1.8157    0.0519    2.6186 C.2       1 UNK         0.0000 
     27 O27         0.7326    0.5208    2.0809 O.co2     1 UNK         0.0000 
     28 C28         2.0547    1.0064    3.7954 C.3       1 UNK         0.0000 
     29 C29         2.4715    2.3254    3.1616 C.2       1 UNK         0.0000 
     30 O30         1.5924    3.1314    2.8672 O.co2     1 UNK         0.0000 
     31 C31         3.7103    2.1633    2.3908 C.2       1 UNK         0.0000 
     32 C32         3.8839    0.9808    1.7389 C.2       1 UNK         0.0000 
     33 C33         0.2940   -3.6860    1.4323 C.3       1 UNK         0.0000 
     34 C34         0.2303   -3.6173    2.9661 C.3       1 UNK         0.0000 
     35 C35        -0.7384   -4.6935    3.5331 C.3       1 UNK         0.0000 
     36 C36        -1.1095   -4.5488    5.0234 C.3       1 UNK         0.0000 
     37 N37        -1.5376   -3.1820    5.3069 N.am      1 UNK         0.0000 
     38 C38        -0.9729   -2.3210    6.1681 C.2       1 UNK         0.0000 
     39 O39        -0.2789   -2.7025    7.1180 O.2       1 UNK         0.0000 
     40 C40        -1.1630   -0.8548    5.8355 C.ar      1 UNK         0.0000 
     41 C41        -1.7811   -0.4575    4.6326 C.ar      1 UNK         0.0000 
     42 C42        -1.6928    0.8553    4.2079 C.ar      1 UNK         0.0000 
     43 O43        -1.9012    1.1667    3.0134 O.co2     1 UNK         0.0000 
     44 C44        -1.0333    1.8098    4.9646 C.ar      1 UNK         0.0000 
     45 O45        -0.6650    2.8151    4.2909 O.co2     1 UNK         0.0000 
     46 C46        -0.5278    1.4841    6.2192 C.ar      1 UNK         0.0000 
     47 C47        -0.5856    0.1467    6.6451 C.ar      1 UNK         0.0000 
     48 H48        -1.4262    4.4010   -3.4256 H         1 UNK         0.0000 
     49 H49        -0.6417    6.3999   -2.2351 H         1 UNK         0.0000 
     50 H50        -0.3915    6.3706    0.2276 H         1 UNK         0.0000 
     51 H51        -0.8461    2.5169   -3.9173 H         1 UNK         0.0000 
     52 H52        -0.9840    0.4190   -5.2262 H         1 UNK         0.0000 
     53 H53        -1.9570   -0.2843   -4.0016 H         1 UNK         0.0000 
     54 H54         0.9908    0.4749   -3.6974 H         1 UNK         0.0000 
     55 H55         0.0165   -0.0914   -2.3739 H         1 UNK         0.0000 
     56 H56        -0.3371   -2.2733   -3.5087 H         1 UNK         0.0000 
     57 H57         0.5981   -1.7351   -4.8722 H         1 UNK         0.0000 
     58 H58         2.6156   -1.4482   -3.4065 H         1 UNK         0.0000 
     59 H59         2.0358   -3.0991   -3.3715 H         1 UNK         0.0000 
     60 H60         2.1847   -1.1643   -1.1583 H         1 UNK         0.0000 
     61 H61         2.9775   -3.3476    1.0295 H         1 UNK         0.0000 
     62 H62         2.8723    0.6367    4.4125 H         1 UNK         0.0000 
     63 H63         0.7129   -4.6505    1.1449 H         1 UNK         0.0000 
     64 H64        -0.7329   -3.6654    1.0586 H         1 UNK         0.0000 
     65 H65         1.2266   -3.7307    3.3991 H         1 UNK         0.0000 
     66 H66        -0.0898   -2.6080    3.2357 H         1 UNK         0.0000 
     67 H67        -1.6638   -4.6782    2.9551 H         1 UNK         0.0000 
     68 H68        -0.3176   -5.6882    3.3631 H         1 UNK         0.0000 
     69 H69        -1.9081   -5.2450    5.2895 H         1 UNK         0.0000 
     70 H70        -0.2437   -4.8225    5.6298 H         1 UNK         0.0000 
     71 H71        -2.1572   -2.7380    4.6427 H         1 UNK         0.0000 
     72 H72        -2.1558   -1.1638    3.9097 H         1 UNK         0.0000 
     73 H73         0.0490    2.1955    6.7872 H         1 UNK         0.0000 
     74 H74        -0.0598   -0.1377    7.5450 H         1 UNK         0.0000 
     75 H75         1.2052    1.1004    4.4678 H         1 UNK         0.0000 
     76 H76         4.4475    2.9496    2.3111 H         1 UNK         0.0000 
     77 H77         4.7959    0.8462    1.1833 H         1 UNK         0.0000 
@<TRIPOS>BOND
     1    1    6 nc   
     2    1    8 nc   
     3    1   27 nc   
     4    1   30 nc   
     5    1   43 nc   
     6    1   45 nc   
     7    2    3 ar   
     8    2    9 ar   
     9    2   48 1    
    10    3    4 ar   
    11    3   49 1    
    12    4   50 1    
    13    4    5 ar   
    14    5    6 1    
    15    5    7 ar   
    16    7    8 1    
    17    7    9 ar   
    18    9   10 1    
    19   10   11 2    
    20   10   12 am   BACKBONE|DICT|INTERRES
    21   12   13 1    
    22   12   51 1    
    23   13   53 1    
    24   13   14 1    
    25   13   52 1    
    26   14   55 1    
    27   14   15 1    
    28   14   54 1    
    29   15   56 1    
    30   15   16 1    
    31   15   57 1    
    32   16   17 1    
    33   16   58 1    
    34   16   59 1    
    35   17   60 1    
    36   17   18 am   BACKBONE|DICT|INTERRES
    37   18   20 1    
    38   18   19 2    
    39   20   21 1    
    40   20   22 1    
    41   20   33 1    
    42   22   23 am   BACKBONE|DICT|INTERRES
    43   22   61 1    
    44   23   25 1    
    45   23   24 2    
    46   25   26 2    
    47   25   32 1    
    48   26   27 1    
    49   26   28 1    
    50   28   62 1    
    51   28   29 1    
    52   28   75 1    
    53   29   30 2    
    54   29   31 1    
    55   31   32 2    
    56   31   76 1    
    57   32   77 1    
    58   33   34 1    
    59   33   63 1    
    60   33   64 1    
    61   34   66 1    
    62   34   65 1    
    63   34   35 1    
    64   35   36 1    
    65   35   67 1    
    66   35   68 1    
    67   36   37 1    
    68   36   69 1    
    69   36   70 1    
    70   37   38 am   BACKBONE|DICT|INTERRES
    71   37   71 1    
    72   38   39 2    
    73   38   40 1    
    74   40   47 ar   
    75   40   41 ar   
    76   41   42 ar   
    77   41   72 1    
    78   42   44 ar   
    79   42   43 1    
    80   44   46 ar   
    81   44   45 1    
    82   46   47 ar   
    83   46   73 1    
    84   47   74 1    
@<TRIPOS>SUBSTRUCTURE
     1 UNK         1 GROUP             0       ****    0 ROOT    
@<TRIPOS>MOLECULE
213_c1
132   138    1
SMALL
USER_CHARGES


@<TRIPOS>ATOM
      1 Fe1         0.7879   -0.5743    2.5108 Fe        1 UNK         0.0000 
      2 O2          4.2490   -0.6776    6.5326 O.2       1 UNK         0.0000 
      3 S3          3.6884    0.5007    7.1833 S.3       1 UNK         0.0000 
      4 O4          4.5822    1.3997    7.9361 O.2       1 UNK         0.0000 
      5 O5          2.6595   -0.0541    8.3414 O.3       1 UNK         0.0000 
      6 C6          2.5078    1.5060    6.1977 C.ar      1 UNK         0.0000 
      7 C7          2.2377    2.7737    6.7197 C.ar      1 UNK         0.0000 
      8 C8          1.3293    3.6328    6.1087 C.ar      1 UNK         0.0000 
      9 C9          1.8401    1.1045    5.0205 C.ar      1 UNK         0.0000 
     10 O10         2.1366   -0.0414    4.5583 O.co2     1 UNK         0.0000 
     11 C11         0.8685    1.9558    4.4085 C.ar      1 UNK         0.0000 
     12 O12         0.2185    1.5673    3.3764 O.co2     1 UNK         0.0000 
     13 C13         0.6093    3.2432    4.9606 C.ar      1 UNK         0.0000 
     14 C14        -0.4106    4.2429    4.4055 C.2       1 UNK         0.0000 
     15 O15        -1.5928    3.9889    4.1642 O.2       1 UNK         0.0000 
     16 N16         0.0263    5.5237    4.3714 N.am      1 UNK         0.0000 
     17 C17        -0.8629    6.6934    4.4519 C.3       1 UNK         0.0000 
     18 C18        -1.7437    6.9739    3.2095 C.3       1 UNK         0.0000 
     19 C19        -1.0240    7.5850    1.9930 C.3       1 UNK         0.0000 
     20 C20        -2.0560    8.2494    1.0469 C.3       1 UNK         0.0000 
     21 C21        -1.5623    8.7486   -0.3284 C.3       1 UNK         0.0000 
     22 H22        -2.3782    9.2353   -0.8692 H         1 UNK         0.0000 
     23 N23        -0.5469    9.8813   -0.1185 N.4       1 UNK         0.0000 
     24 H24        -0.2359   10.1399   -1.0503 H         1 UNK         0.0000 
     25 H25         0.2504    9.5213    0.3878 H         1 UNK         0.0000 
     26 H26        -0.9478   10.6748    0.3594 H         1 UNK         0.0000 
     27 C27        -0.8991    7.6899   -1.2421 C.3       1 UNK         0.0000 
     28 H28        -0.0233    7.2976   -0.7173 H         1 UNK         0.0000 
     29 O29        -0.4066    8.3436   -2.4014 O.3       1 UNK         0.0000 
     30 C30        -1.8258    6.5222   -1.6833 C.3       1 UNK         0.0000 
     31 C31        -1.0580    5.3712   -2.3540 C.2       1 UNK         0.0000 
     32 O32         0.1714    5.3853   -2.3114 O.2       1 UNK         0.0000 
     33 N33        -1.7775    4.4654   -3.0411 N.am      1 UNK         0.0000 
     34 C34        -1.2819    3.2087   -3.6472 C.3       1 UNK         0.0000 
     35 H35        -2.0253    2.8362   -4.3515 H         1 UNK         0.0000 
     36 C36         0.0810    3.3797   -4.3646 C.3       1 UNK         0.0000 
     37 C37         0.2213    2.4780   -5.5875 C.2       1 UNK         0.0000 
     38 O38         0.5587    1.3088   -5.4978 O.2       1 UNK         0.0000 
     39 N39        -0.0528    2.9936   -6.7714 N.am      1 UNK         0.0000 
     40 C40        -1.3024    2.0458   -2.6347 C.2       1 UNK         0.0000 
     41 O41        -2.1009    2.1692   -1.7016 O.2       1 UNK         0.0000 
     42 N42        -0.5196    0.9734   -2.9020 N.am      1 UNK         0.0000 
     43 C43        -0.2817   -0.2171   -2.0811 C.3       1 UNK         0.0000 
     44 H44        -1.2538   -0.4566   -1.6615 H         1 UNK         0.0000 
     45 C45         0.6468    0.0790   -0.8373 C.3       1 UNK         0.0000 
     46 H46         1.1553    1.0103   -1.0577 H         1 UNK         0.0000 
     47 O47        -0.1517    0.2147    0.3215 O.co2     1 UNK         0.0000 
     48 C48         1.9810   -0.7071   -0.5709 C.2       1 UNK         0.0000 
     49 O49         2.3415   -0.8074    0.6446 O.co2     1 UNK         0.0000 
     50 O50         2.6463   -1.0932   -1.5672 O.co2     1 UNK         0.0000 
     51 C51        -0.1079   -1.4815   -2.9882 C.2       1 UNK         0.0000 
     52 O52        -0.3685   -1.4190   -4.1988 O.2       1 UNK         0.0000 
     53 N53         0.0939   -2.6531   -2.3771 N.am      1 UNK         0.0000 
     54 C54        -0.6294   -3.8799   -2.7125 C.3       1 UNK         0.0000 
     55 H55        -1.4336   -3.6328   -3.4077 H         1 UNK         0.0000 
     56 C56         0.2376   -4.9647   -3.4097 C.3       1 UNK         0.0000 
     57 C57         1.5376   -5.3641   -2.6764 C.3       1 UNK         0.0000 
     58 C58         2.1883   -6.6323   -3.2786 C.3       1 UNK         0.0000 
     59 C59         3.5879   -6.9782   -2.7315 C.3       1 UNK         0.0000 
     60 N60         3.5626   -7.3757   -1.3199 N.am      1 UNK         0.0000 
     61 C61         3.7847   -6.5291   -0.2983 C.2       1 UNK         0.0000 
     62 O62         4.1998   -5.3897   -0.4839 O.2       1 UNK         0.0000 
     63 C63         3.5078   -7.0753    1.1121 C.3       1 UNK         0.0000 
     64 N64         2.1898   -6.5811    1.5139 N.am      1 UNK         0.0000 
     65 C65         1.9968   -5.5299    2.3128 C.2       1 UNK         0.0000 
     66 O66         2.9301   -5.1353    3.0188 O.2       1 UNK         0.0000 
     67 C67         0.6281   -4.9425    2.3001 C.2       1 UNK         0.0000 
     68 C68         0.4325   -3.6185    2.6571 C.2       1 UNK         0.0000 
     69 O69         1.3577   -2.7485    2.8927 O.co2     1 UNK         0.0000 
     70 C70        -1.0484   -2.9473    2.8239 C.2       1 UNK         0.0000 
     71 O71        -1.0249   -1.6840    2.9812 O.co2     1 UNK         0.0000 
     72 O72        -2.0310   -3.7421    2.8164 O.co2     1 UNK         0.0000 
     73 N73        -0.5012   -5.6519    1.9692 N.am      1 UNK         0.0000 
     74 C74        -0.7758   -6.3301    0.8403 C.2       1 UNK         0.0000 
     75 O75        -0.0651   -7.2261    0.3493 O.2       1 UNK         0.0000 
     76 C76        -2.1042   -6.0355    0.1072 C.3       1 UNK         0.0000 
     77 H77        -2.5752   -5.2101    0.6517 H         1 UNK         0.0000 
     78 N78        -1.7591   -5.5965   -1.2645 N.am      1 UNK         0.0000 
     79 C79        -1.3883   -4.3088   -1.4398 C.2       1 UNK         0.0000 
     80 O80        -1.6652   -3.4487   -0.6153 O.2       1 UNK         0.0000 
     81 C81        -3.1854   -7.1800    0.1078 C.3       1 UNK         0.0000 
     82 C82        -2.7706   -8.6830    0.1975 C.3       1 UNK         0.0000 
     83 C83        -3.7254   -9.5857    1.0197 C.3       1 UNK         0.0000 
     84 C84        -4.6724  -10.4629    0.1816 C.3       1 UNK         0.0000 
     85 N85        -5.5180  -11.3305    1.0358 N.4       1 UNK         0.0000 
     86 H86        -4.9513  -11.9385    1.6125 H         1 UNK         0.0000 
     87 H87        -6.1109  -10.7743    1.6378 H         1 UNK         0.0000 
     88 H88        -6.1080  -11.9086    0.4545 H         1 UNK         0.0000 
     89 H89         2.7285    3.0974    7.6197 H         1 UNK         0.0000 
     90 H90         1.1634    4.5975    6.5591 H         1 UNK         0.0000 
     91 H91         1.0233    5.6122    4.5195 H         1 UNK         0.0000 
     92 H92        -0.2402    7.5645    4.6758 H         1 UNK         0.0000 
     93 H93        -1.5182    6.5857    5.3244 H         1 UNK         0.0000 
     94 H94        -2.5369    7.6446    3.5344 H         1 UNK         0.0000 
     95 H95        -2.2743    6.0706    2.8985 H         1 UNK         0.0000 
     96 H96        -0.2911    8.3164    2.3311 H         1 UNK         0.0000 
     97 H97        -0.4653    6.7936    1.4870 H         1 UNK         0.0000 
     98 H98        -2.8795    7.5530    0.8742 H         1 UNK         0.0000 
     99 H99        -2.5146    9.0879    1.5739 H         1 UNK         0.0000 
    100 H100        0.0205    7.6423   -2.9239 H         1 UNK         0.0000 
    101 H101       -2.6074    6.8774   -2.3597 H         1 UNK         0.0000 
    102 H102       -2.3227    6.1008   -0.8087 H         1 UNK         0.0000 
    103 H103       -2.7773    4.4510   -2.9195 H         1 UNK         0.0000 
    104 H104        0.1666    4.4040   -4.7302 H         1 UNK         0.0000 
    105 H105        0.9157    3.2164   -3.6710 H         1 UNK         0.0000 
    106 H106        0.0544    2.3639   -7.5510 H         1 UNK         0.0000 
    107 H107       -0.2971    3.9613   -6.8942 H         1 UNK         0.0000 
    108 H108       -0.0134    0.8957   -3.7755 H         1 UNK         0.0000 
    109 H109        0.3311   -2.5445   -1.3941 H         1 UNK         0.0000 
    110 H110        0.5031   -4.5892   -4.4020 H         1 UNK         0.0000 
    111 H111       -0.3741   -5.8492   -3.5967 H         1 UNK         0.0000 
    112 H112        2.2392   -4.5265   -2.7297 H         1 UNK         0.0000 
    113 H113        1.3412   -5.5057   -1.6126 H         1 UNK         0.0000 
    114 H114        2.2700   -6.5056   -4.3581 H         1 UNK         0.0000 
    115 H115        1.5327   -7.4871   -3.1254 H         1 UNK         0.0000 
    116 H116        4.0439   -7.7744   -3.3222 H         1 UNK         0.0000 
    117 H117        4.2392   -6.1095   -2.8750 H         1 UNK         0.0000 
    118 H118        3.3254   -8.3280   -1.0932 H         1 UNK         0.0000 
    119 H119        3.5456   -8.1630    1.1411 H         1 UNK         0.0000 
    120 H120        4.3038   -6.7155    1.7657 H         1 UNK         0.0000 
    121 H121        1.3844   -6.8311    0.9419 H         1 UNK         0.0000 
    122 H122       -1.2348   -4.9868    2.2778 H         1 UNK         0.0000 
    123 H123       -1.3964   -6.2715   -1.9177 H         1 UNK         0.0000 
    124 H124       -3.7584   -6.9593    1.0080 H         1 UNK         0.0000 
    125 H125       -3.8900   -7.0210   -0.7108 H         1 UNK         0.0000 
    126 H126       -2.6206   -9.0765   -0.8101 H         1 UNK         0.0000 
    127 H127       -1.8005   -8.7967    0.6736 H         1 UNK         0.0000 
    128 H128       -3.1021  -10.2101    1.6658 H         1 UNK         0.0000 
    129 H129       -4.3043   -8.9639    1.7055 H         1 UNK         0.0000 
    130 H130       -5.3080   -9.8361   -0.4486 H         1 UNK         0.0000 
    131 H131       -4.0866  -11.0935   -0.4927 H         1 UNK         0.0000 
    132 H132        3.1515    0.0376    9.1696 H         1 UNK         0.0000 
@<TRIPOS>BOND
     1    1   10 nc   
     2    1   12 nc   
     3    1   47 nc   
     4    1   49 nc   
     5    1   69 nc   
     6    1   71 nc   
     7    2    3 2    
     8    3    4 2    
     9    3    5 1    
    10    3    6 1    
    11    5  132 1    
    12    6    7 ar   
    13    6    9 ar   
    14    7   89 1    
    15    7    8 ar   
    16    8   90 1    
    17    8   13 ar   
    18    9   10 1    
    19    9   11 ar   
    20   11   13 ar   
    21   11   12 1    
    22   13   14 1    
    23   14   15 2    
    24   14   16 am   BACKBONE|DICT|INTERRES
    25   16   91 1    
    26   16   17 1    
    27   17   92 1    
    28   17   93 1    
    29   17   18 1    
    30   18   94 1    
    31   18   19 1    
    32   18   95 1    
    33   19   96 1    
    34   19   20 1    
    35   19   97 1    
    36   20   99 1    
    37   20   21 1    
    38   20   98 1    
    39   21   22 1    
    40   21   23 1    
    41   21   27 1    
    42   23   25 1    
    43   23   26 1    
    44   23   24 1    
    45   27   28 1    
    46   27   29 1    
    47   27   30 1    
    48   29  100 1    
    49   30  102 1    
    50   30   31 1    
    51   30  101 1    
    52   31   32 2    
    53   31   33 am   BACKBONE|DICT|INTERRES
    54   33  103 1    
    55   33   34 1    
    56   34   35 1    
    57   34   40 1    
    58   34   36 1    
    59   36  105 1    
    60   36   37 1    
    61   36  104 1    
    62   37   38 2    
    63   37   39 am   BACKBONE|DICT|INTERRES
    64   39  106 1    
    65   39  107 1    
    66   40   42 am   BACKBONE|DICT|INTERRES
    67   40   41 2    
    68   42   43 1    
    69   42  108 1    
    70   43   44 1    
    71   43   45 1    
    72   43   51 1    
    73   45   46 1    
    74   45   48 1    
    75   45   47 1    
    76   48   49 1    
    77   48   50 2    
    78   51   53 am   BACKBONE|DICT|INTERRES
    79   51   52 2    
    80   53   54 1    
    81   53  109 1    
    82   54   55 1    
    83   54   79 1    
    84   54   56 1    
    85   56   57 1    
    86   56  110 1    
    87   56  111 1    
    88   57  113 1    
    89   57   58 1    
    90   57  112 1    
    91   58  115 1    
    92   58   59 1    
    93   58  114 1    
    94   59   60 1    
    95   59  116 1    
    96   59  117 1    
    97   60  118 1    
    98   60   61 am   BACKBONE|DICT|INTERRES
    99   61   63 1    
   100   61   62 2    
   101   63  119 1    
   102   63   64 1    
   103   63  120 1    
   104   64   65 am   BACKBONE|DICT|INTERRES
   105   64  121 1    
   106   65   67 1    
   107   65   66 2    
   108   67   68 2    
   109   67   73 1    
   110   68   70 1    
   111   68   69 1    
   112   70   72 2    
   113   70   71 1    
   114   73   74 am   BACKBONE|DICT|INTERRES
   115   73  122 1    
   116   74   75 2    
   117   74   76 1    
   118   76   77 1    
   119   76   81 1    
   120   76   78 1    
   121   78   79 am   BACKBONE|DICT|INTERRES
   122   78  123 1    
   123   79   80 2    
   124   81  124 1    
   125   81   82 1    
   126   81  125 1    
   127   82  127 1    
   128   82   83 1    
   129   82  126 1    
   130   83  129 1    
   131   83  128 1    
   132   83   84 1    
   133   84   85 1    
   134   84  130 1    
   135   84  131 1    
   136   85   86 1    
   137   85   87 1    
   138   85   88 1    
@<TRIPOS>SUBSTRUCTURE
     1 UNK         1 GROUP             0       ****    0 ROOT    
@<TRIPOS>MOLECULE
215_c1
83   92    1
SMALL
USER_CHARGES


@<TRIPOS>ATOM
      1 Fe1        -0.0005    0.3381   -0.3376 Fe        1 UNK         0.0000 
      2 C2         -1.8466   -7.0339   -0.9650 C.ar      1 UNK         0.0000 
      3 N3         -2.0386   -7.9262   -1.9878 N.pl3     1 UNK         0.0000 
      4 H4         -2.9077   -8.3644   -2.2828 H         1 UNK         0.0000 
      5 C5         -0.7981   -8.1299   -2.5200 C.ar      1 UNK         0.0000 
      6 N6          0.1309   -7.4338   -1.9099 N.2       1 UNK         0.0000 
      7 C7         -0.4805   -6.7634   -0.9398 C.ar      1 UNK         0.0000 
      8 C8          0.3111   -5.9014    0.0207 C.3       1 UNK         0.0000 
      9 C9          1.1023   -4.7707   -0.6660 C.3       1 UNK         0.0000 
     10 N10         1.6664   -3.8108    0.2970 N.am      1 UNK         0.0000 
     11 O11         2.6344   -4.2841    1.1907 O.3       1 UNK         0.0000 
     12 C12         3.1841   -3.1576    1.8713 C.3       1 UNK         0.0000 
     13 H13         3.4437   -3.4571    2.8932 H         1 UNK         0.0000 
     14 C14         4.4558   -2.7105    1.1356 C.3       1 UNK         0.0000 
     15 C15         2.0434   -2.1472    1.8508 C.3       1 UNK         0.0000 
     16 H16         1.3610   -2.4264    2.6530 H         1 UNK         0.0000 
     17 C17         1.2680   -2.5603    0.5818 C.2       1 UNK         0.0000 
     18 O18         0.4358   -1.8798   -0.0484 O.co2     1 UNK         0.0000 
     19 N19         2.4127   -0.6960    2.0379 N.am      1 UNK         0.0000 
     20 C20         2.4354    0.3115    1.1298 C.2       1 UNK         0.0000 
     21 O21         2.2618    0.0902   -0.0750 O.co2     1 UNK         0.0000 
     22 C22         2.2157    1.7347    1.6397 C.ar      1 UNK         0.0000 
     23 C23         1.3185    2.6530    1.0138 C.ar      1 UNK         0.0000 
     24 O24         0.6131    2.4150   -0.0219 O.co2     1 UNK         0.0000 
     25 C25         1.1577    3.9330    1.5418 C.ar      1 UNK         0.0000 
     26 C26         1.8887    4.3561    2.6408 C.ar      1 UNK         0.0000 
     27 C27         2.7808    3.4839    3.2490 C.ar      1 UNK         0.0000 
     28 C28         2.9367    2.1775    2.7675 C.ar      1 UNK         0.0000 
     29 H29        -2.6699   -6.7071   -0.3424 H         1 UNK         0.0000 
     30 H30        -0.3457   -5.4754    0.7797 H         1 UNK         0.0000 
     31 H31         1.0109   -6.5438    0.5574 H         1 UNK         0.0000 
     32 H32         1.9007   -5.1963   -1.2827 H         1 UNK         0.0000 
     33 H33         0.4482   -4.2368   -1.3543 H         1 UNK         0.0000 
     34 H34         4.2456   -2.4087    0.1068 H         1 UNK         0.0000 
     35 H35         5.2122   -3.4963    1.1134 H         1 UNK         0.0000 
     36 H36         4.8839   -1.8512    1.6467 H         1 UNK         0.0000 
     37 H37         2.6194   -0.4449    2.9951 H         1 UNK         0.0000 
     38 H38         0.4635    4.6296    1.0864 H         1 UNK         0.0000 
     39 H39         1.7729    5.3720    2.9936 H         1 UNK         0.0000 
     40 H40         3.3721    3.8256    4.0834 H         1 UNK         0.0000 
     41 H41         3.6468    1.5276    3.2645 H         1 UNK         0.0000 
     42 C42         1.8487    0.9478    7.0380 C.ar      1 UNK         0.0000 
     43 N43         2.0423    1.9681    7.9329 N.pl3     1 UNK         0.0000 
     44 H44         2.9127    2.2622    8.3695 H         1 UNK         0.0000 
     45 C45         0.8020    2.4990    8.1406 C.ar      1 UNK         0.0000 
     46 N46        -0.1282    1.8911    7.4444 N.2       1 UNK         0.0000 
     47 C47         0.4826    0.9235    6.7690 C.ar      1 UNK         0.0000 
     48 C48        -0.3103   -0.0330    5.9038 C.3       1 UNK         0.0000 
     49 C49        -1.0998    0.6584    4.7747 C.3       1 UNK         0.0000 
     50 N50        -1.6658   -0.3009    3.8122 N.am      1 UNK         0.0000 
     51 O51        -2.6338   -1.1954    4.2843 O.3       1 UNK         0.0000 
     52 C52        -3.1838   -1.8742    3.1570 C.3       1 UNK         0.0000 
     53 H53        -3.4430   -2.8966    3.4550 H         1 UNK         0.0000 
     54 C54        -4.4556   -1.1379    2.7114 C.3       1 UNK         0.0000 
     55 C55        -2.0434   -1.8521    2.1464 C.3       1 UNK         0.0000 
     56 H56        -1.3602   -2.6538    2.4248 H         1 UNK         0.0000 
     57 C57        -1.2686   -0.5829    2.5606 C.2       1 UNK         0.0000 
     58 O58        -0.4371    0.0488    1.8804 O.co2     1 UNK         0.0000 
     59 N59        -2.4132   -2.0386    0.6952 N.am      1 UNK         0.0000 
     60 C60        -2.4358   -1.1301   -0.3118 C.2       1 UNK         0.0000 
     61 O61        -2.2626    0.0746   -0.0902 O.co2     1 UNK         0.0000 
     62 C62        -2.2156   -1.6400   -1.7349 C.ar      1 UNK         0.0000 
     63 C63        -1.3174   -1.0145   -2.6525 C.ar      1 UNK         0.0000 
     64 O64        -0.6132    0.0220   -2.4147 O.co2     1 UNK         0.0000 
     65 C65        -1.1553   -1.5432   -3.9321 C.ar      1 UNK         0.0000 
     66 C66        -1.8857   -2.6427   -4.3551 C.ar      1 UNK         0.0000 
     67 C67        -2.7788   -3.2504   -3.4836 C.ar      1 UNK         0.0000 
     68 C68        -2.9358   -2.7683   -2.1776 C.ar      1 UNK         0.0000 
     69 H69         2.6717    0.3274    6.7060 H         1 UNK         0.0000 
     70 H70         0.3452   -0.7919    5.4755 H         1 UNK         0.0000 
     71 H71        -1.0113   -0.5708    6.5440 H         1 UNK         0.0000 
     72 H72        -1.8968    1.2758    5.2021 H         1 UNK         0.0000 
     73 H73        -0.4441    1.3468    4.2428 H         1 UNK         0.0000 
     74 H74        -4.2457   -0.1086    2.4112 H         1 UNK         0.0000 
     75 H75        -5.2119   -1.1170    3.4975 H         1 UNK         0.0000 
     76 H76        -4.8839   -1.6477    1.8514 H         1 UNK         0.0000 
     77 H77        -2.6196   -2.9955    0.4427 H         1 UNK         0.0000 
     78 H78        -0.4607   -1.0878   -4.6283 H         1 UNK         0.0000 
     79 H79        -1.7691   -2.9958   -5.3708 H         1 UNK         0.0000 
     80 H80        -3.3697   -4.0851   -3.8253 H         1 UNK         0.0000 
     81 H81        -3.6468   -3.2646   -1.5281 H         1 UNK         0.0000 
     82 H82        -0.6632   -8.8174   -3.3483 H         1 UNK         0.0000 
     83 H83         0.6669    3.3254    8.8307 H         1 UNK         0.0000 
@<TRIPOS>BOND
     1    1   18 nc   
     2    1   21 nc   
     3    1   24 nc   
     4    1   58 nc   
     5    1   61 nc   
     6    1   64 nc   
     7    2    7 ar   
     8    2   29 1    
     9    2    3 ar   
    10    3    4 1    
    11    3    5 ar   
    12    5    6 ar   
    13    5   82 1    
    14    6    7 ar   
    15    7    8 1    
    16    8   31 1    
    17    8   30 1    
    18    8    9 1    
    19    9   10 1    
    20    9   32 1    
    21    9   33 1    
    22   10   17 am   BACKBONE|DICT|INTERRES
    23   10   11 1    
    24   11   12 1    
    25   12   13 1    
    26   12   14 1    
    27   12   15 1    
    28   14   35 1    
    29   14   36 1    
    30   14   34 1    
    31   15   19 1    
    32   15   16 1    
    33   15   17 1    
    34   17   18 2    
    35   19   37 1    
    36   19   20 am   BACKBONE|DICT|INTERRES
    37   20   22 1    
    38   20   21 2    
    39   22   28 ar   
    40   22   23 ar   
    41   23   25 ar   
    42   23   24 1    
    43   25   26 ar   
    44   25   38 1    
    45   26   39 1    
    46   26   27 ar   
    47   27   40 1    
    48   27   28 ar   
    49   28   41 1    
    50   42   43 ar   
    51   42   47 ar   
    52   42   69 1    
    53   43   45 ar   
    54   43   44 1    
    55   45   46 ar   
    56   45   83 1    
    57   46   47 ar   
    58   47   48 1    
    59   48   71 1    
    60   48   49 1    
    61   48   70 1    
    62   49   72 1    
    63   49   50 1    
    64   49   73 1    
    65   50   51 1    
    66   50   57 am   BACKBONE|DICT|INTERRES
    67   51   52 1    
    68   52   53 1    
    69   52   54 1    
    70   52   55 1    
    71   54   75 1    
    72   54   74 1    
    73   54   76 1    
    74   55   56 1    
    75   55   57 1    
    76   55   59 1    
    77   57   58 2    
    78   59   60 am   BACKBONE|DICT|INTERRES
    79   59   77 1    
    80   60   62 1    
    81   60   61 2    
    82   62   63 ar   
    83   62   68 ar   
    84   63   64 1    
    85   63   65 ar   
    86   65   66 ar   
    87   65   78 1    
    88   66   67 ar   
    89   66   79 1    
    90   67   68 ar   
    91   67   80 1    
    92   68   81 1    
@<TRIPOS>SUBSTRUCTURE
     1 UNK         1 GROUP             0       ****    0 ROOT    
@<TRIPOS>MOLECULE
216_c1
53   58    1
SMALL
USER_CHARGES


@<TRIPOS>ATOM
      1 Fe1         0.1593   -0.3516    0.0063 Fe        1 UNK         0.0000 
      2 O2          1.6137    1.2281    0.7099 O.co2     1 UNK         0.0000 
      3 N3          0.9725    1.7548    1.7463 N.am      1 UNK         0.0000 
      4 C4          1.1594    3.2216    1.8385 C.3       1 UNK         0.0000 
      5 C5          0.2364    4.0651    0.8925 C.3       1 UNK         0.0000 
      6 C6          0.3249    3.8104   -0.6475 C.3       1 UNK         0.0000 
      7 C7         -1.0315    3.7334   -1.4085 C.3       1 UNK         0.0000 
      8 N8         -1.0053    2.8276   -2.5823 N.am      1 UNK         0.0000 
      9 C9         -0.9862    1.4915   -2.4505 C.2       1 UNK         0.0000 
     10 O10        -1.0780    0.9821   -1.3253 O.co2     1 UNK         0.0000 
     11 C11        -0.8190    0.5544   -3.6687 C.3       1 UNK         0.0000 
     12 C12         0.3887   -0.4677   -3.6252 C.3       1 UNK         0.0000 
     13 C13         0.4682   -1.4117   -2.4086 C.2       1 UNK         0.0000 
     14 O14        -0.4655   -1.4621   -1.6024 O.co2     1 UNK         0.0000 
     15 N15         1.6706   -1.7448   -1.8977 N.am      1 UNK         0.0000 
     16 O16         2.0808   -1.2627   -0.7270 O.co2     1 UNK         0.0000 
     17 C17         2.0953   -3.1433   -2.0339 C.3       1 UNK         0.0000 
     18 C18         1.2795   -4.1731   -1.1865 C.3       1 UNK         0.0000 
     19 C19         1.0334   -3.8890    0.3363 C.3       1 UNK         0.0000 
     20 C20        -0.3628   -3.3202    0.7504 C.3       1 UNK         0.0000 
     21 N21        -0.3270   -1.9791    1.4165 N.pl3     1 UNK         0.0000 
     22 C22        -0.5119   -1.9801    2.7200 C.2       1 UNK         0.0000 
     23 O23        -0.2918   -3.0911    3.5006 O.3       1 UNK         0.0000 
     24 C24        -1.1054   -0.7853    3.5257 C.3       1 UNK         0.0000 
     25 C25        -0.3834    0.6212    3.5198 C.3       1 UNK         0.0000 
     26 C26        -0.1881    1.1867    2.1237 C.2       1 UNK         0.0000 
     27 O27        -0.8135    0.6144    1.2255 O.co2     1 UNK         0.0000 
     28 H28         2.2034    3.4549    1.5874 H         1 UNK         0.0000 
     29 H29         1.0490    3.5567    2.8762 H         1 UNK         0.0000 
     30 H30         0.4678    5.1157    1.0701 H         1 UNK         0.0000 
     31 H31        -0.7859    3.9482    1.2506 H         1 UNK         0.0000 
     32 H32         0.9216    4.6038   -1.0990 H         1 UNK         0.0000 
     33 H33         0.9159    2.9234   -0.8625 H         1 UNK         0.0000 
     34 H34        -1.8115    3.3890   -0.7269 H         1 UNK         0.0000 
     35 H35        -1.3464    4.7357   -1.7093 H         1 UNK         0.0000 
     36 H36        -1.0121    3.2640   -3.4967 H         1 UNK         0.0000 
     37 H37        -1.7424   -0.0036   -3.8245 H         1 UNK         0.0000 
     38 H38        -0.7355    1.1499   -4.5811 H         1 UNK         0.0000 
     39 H39         1.3373    0.0594   -3.7760 H         1 UNK         0.0000 
     40 H40         0.3272   -1.1178   -4.5003 H         1 UNK         0.0000 
     41 H41         2.0852   -3.4360   -3.0873 H         1 UNK         0.0000 
     42 H42         3.1532   -3.2188   -1.7506 H         1 UNK         0.0000 
     43 H43         1.8068   -5.1200   -1.2715 H         1 UNK         0.0000 
     44 H44         0.3307   -4.3579   -1.6875 H         1 UNK         0.0000 
     45 H45         1.8532   -3.3312    0.7855 H         1 UNK         0.0000 
     46 H46         1.1036   -4.8628    0.8354 H         1 UNK         0.0000 
     47 H47        -0.8942   -4.0937    1.3261 H         1 UNK         0.0000 
     48 H48        -1.0193   -3.2792   -0.1208 H         1 UNK         0.0000 
     49 H49        -1.2056   -1.0738    4.5720 H         1 UNK         0.0000 
     50 H50        -2.1474   -0.6471    3.2377 H         1 UNK         0.0000 
     51 H51        -0.9616    1.3384    4.0948 H         1 UNK         0.0000 
     52 H52         0.5951    0.5416    3.9947 H         1 UNK         0.0000 
     53 H53        -0.4479   -2.9108    4.4367 H         1 UNK         0.0000 
@<TRIPOS>BOND
     1    1    2 nc   
     2    1   10 nc   
     3    1   14 nc   
     4    1   16 nc   
     5    1   21 nc   
     6    1   27 nc   
     7    2    3 1    
     8    3    4 1    
     9    3   26 am   BACKBONE|DICT|INTERRES
    10    4   29 1    
    11    4    5 1    
    12    4   28 1    
    13    5   30 1    
    14    5   31 1    
    15    5    6 1    
    16    6    7 1    
    17    6   32 1    
    18    6   33 1    
    19    7   34 1    
    20    7    8 1    
    21    7   35 1    
    22    8    9 am   BACKBONE|DICT|INTERRES
    23    8   36 1    
    24    9   10 2    
    25    9   11 1    
    26   11   37 1    
    27   11   12 1    
    28   11   38 1    
    29   12   13 1    
    30   12   39 1    
    31   12   40 1    
    32   13   15 am   BACKBONE|DICT|INTERRES
    33   13   14 2    
    34   15   16 1    
    35   15   17 1    
    36   17   42 1    
    37   17   18 1    
    38   17   41 1    
    39   18   19 1    
    40   18   43 1    
    41   18   44 1    
    42   19   46 1    
    43   19   20 1    
    44   19   45 1    
    45   20   21 1    
    46   20   47 1    
    47   20   48 1    
    48   21   22 2    
    49   22   23 1    
    50   22   24 1    
    51   23   53 1    
    52   24   25 1    
    53   24   49 1    
    54   24   50 1    
    55   25   51 1    
    56   25   52 1    
    57   25   26 1    
    58   26   27 2    
@<TRIPOS>SUBSTRUCTURE
     1 UNK         1 GROUP             0       ****    0 ROOT    
@<TRIPOS>MOLECULE
218_c1
49   54    1
SMALL
USER_CHARGES


@<TRIPOS>ATOM
      1 Fe1        -0.1609   -0.0072    0.0094 Fe        1 UNK         0.0000 
      2 S2         -0.2022    2.4471   -0.1014 S.3       1 UNK         0.0000 
      3 C3          0.9122    3.9032   -0.0086 C.2       1 UNK         0.0000 
      4 O4          0.5730    5.0674    0.0300 O.2       1 UNK         0.0000 
      5 C5          2.4007    3.5652    0.0476 C.ar      1 UNK         0.0000 
      6 N6          2.6565    2.2641    0.0986 N.ar      1 UNK         0.0000 
      7 C7          3.8082    1.6654    0.0945 C.ar      1 UNK         0.0000 
      8 C8          3.4662    0.1883    0.0953 C.2       1 UNK         0.0000 
      9 S9          4.9237   -0.8843    0.0209 S.3       1 UNK         0.0000 
     10 O10         2.2398   -0.1651    0.1107 O.2       1 UNK         0.0000 
     11 C11         4.9828    2.4258    0.0802 C.ar      1 UNK         0.0000 
     12 C12         4.8150    3.8385    0.0794 C.ar      1 UNK         0.0000 
     13 C13         3.5162    4.4204    0.0603 C.ar      1 UNK         0.0000 
     14 H14         5.9602    1.9667    0.0776 H         1 UNK         0.0000 
     15 H15         5.6841    4.4783    0.0918 H         1 UNK         0.0000 
     16 H16         3.3790    5.4919    0.0590 H         1 UNK         0.0000 
     17 S17         0.1283   -2.4400   -0.2485 S.3       1 UNK         0.0000 
     18 C18         0.1251   -3.8789    0.8786 C.2       1 UNK         0.0000 
     19 O19         0.1928   -5.0465    0.5558 O.2       1 UNK         0.0000 
     20 C20         0.0722   -3.5177    2.3634 C.ar      1 UNK         0.0000 
     21 N21         0.0254   -2.2088    2.6356 N.ar      1 UNK         0.0000 
     22 C22         0.0267   -1.6505    3.8252 C.ar      1 UNK         0.0000 
     23 C23         0.0111   -0.1536    3.5871 C.2       1 UNK         0.0000 
     24 S24         0.0552    0.8601    5.0892 S.3       1 UNK         0.0000 
     25 O25        -0.0168    0.2480    2.3839 O.2       1 UNK         0.0000 
     26 C26         0.0608   -2.4468    4.9732 C.ar      1 UNK         0.0000 
     27 C27         0.0782   -3.8495    4.7690 C.ar      1 UNK         0.0000 
     28 C28         0.0913   -4.3937    3.4599 C.ar      1 UNK         0.0000 
     29 H29         0.0695   -2.0203    5.9663 H         1 UNK         0.0000 
     30 H30         0.0871   -4.5183    5.6196 H         1 UNK         0.0000 
     31 H31         0.1132   -5.4619    3.2894 H         1 UNK         0.0000 
     32 S32        -2.6327   -0.1744    0.2563 S.3       1 UNK         0.0000 
     33 C33        -4.0300   -0.0595   -0.9135 C.2       1 UNK         0.0000 
     34 O34        -5.2082   -0.0443   -0.6343 O.2       1 UNK         0.0000 
     35 C35        -3.6035    0.0369   -2.3810 C.ar      1 UNK         0.0000 
     36 N36        -2.2822    0.1086   -2.6132 N.ar      1 UNK         0.0000 
     37 C37        -1.7018    0.1029   -3.7990 C.ar      1 UNK         0.0000 
     38 C38        -0.2098    0.0821   -3.5594 C.2       1 UNK         0.0000 
     39 S39         0.8083    0.0468   -5.0621 S.3       1 UNK         0.0000 
     40 O40         0.1815    0.0642   -2.3569 O.2       1 UNK         0.0000 
     41 C41        -2.4703    0.0894   -4.9636 C.ar      1 UNK         0.0000 
     42 C42        -3.8751    0.0833   -4.7966 C.ar      1 UNK         0.0000 
     43 C43        -4.4498    0.0490   -3.5016 C.ar      1 UNK         0.0000 
     44 H44        -2.0136    0.0875   -5.9419 H         1 UNK         0.0000 
     45 H45        -4.5215    0.0926   -5.6643 H         1 UNK         0.0000 
     46 H46        -5.5225    0.0267   -3.3623 H         1 UNK         0.0000 
     47 H47         4.2394   -2.0284    0.0041 H         1 UNK         0.0000 
     48 H48        -0.0142    2.0282    4.4506 H         1 UNK         0.0000 
     49 H49         1.9827    0.0010   -4.4363 H         1 UNK         0.0000 
@<TRIPOS>BOND
     1    1    2 nc   
     2    1   10 nc   
     3    1   17 nc   
     4    1   25 nc   
     5    1   32 nc   
     6    1   40 nc   
     7    2    3 1    
     8    3    4 2    
     9    3    5 1    
    10    5   13 ar   
    11    5    6 ar   
    12    6    7 ar   
    13    7   11 ar   
    14    7    8 1    
    15    8    9 1    
    16    8   10 2    
    17    9   47 1    
    18   11   14 1    
    19   11   12 ar   
    20   12   15 1    
    21   12   13 ar   
    22   13   16 1    
    23   17   18 1    
    24   18   20 1    
    25   18   19 2    
    26   20   21 ar   
    27   20   28 ar   
    28   21   22 ar   
    29   22   26 ar   
    30   22   23 1    
    31   23   24 1    
    32   23   25 2    
    33   24   48 1    
    34   26   29 1    
    35   26   27 ar   
    36   27   30 1    
    37   27   28 ar   
    38   28   31 1    
    39   32   33 1    
    40   33   34 2    
    41   33   35 1    
    42   35   36 ar   
    43   35   43 ar   
    44   36   37 ar   
    45   37   38 1    
    46   37   41 ar   
    47   38   39 1    
    48   38   40 2    
    49   39   49 1    
    50   41   42 ar   
    51   41   44 1    
    52   42   43 ar   
    53   42   45 1    
    54   43   46 1    
@<TRIPOS>SUBSTRUCTURE
     1 UNK         1 GROUP             0       ****    0 ROOT    
@<TRIPOS>MOLECULE
219_c1
118   126    1
SMALL
USER_CHARGES


@<TRIPOS>ATOM
      1 Fe1        -0.0546    0.0118   -0.0058 Fe        1 UNK         0.0000 
      2 O2          0.2859    2.2082    0.0224 O.co2     1 UNK         0.0000 
      3 N3          1.6124    2.4507    0.0011 N.am      1 UNK         0.0000 
      4 C4          2.5168    1.3897   -0.0254 C.2       1 UNK         0.0000 
      5 O5          2.1364    0.2137   -0.1015 O.co2     1 UNK         0.0000 
      6 C6          3.9504    1.7573    0.0450 C.2       1 UNK         0.0000 
      7 C7          4.3015    3.0854    0.0441 C.2       1 UNK         0.0000 
      8 O8          5.5880    3.5009    0.1364 O.3       1 UNK         0.0000 
      9 C9          3.2949    4.1304    0.0027 C.2       1 UNK         0.0000 
     10 C10         2.0146    3.7524   -0.0004 C.2       1 UNK         0.0000 
     11 C11         5.0333    0.6141    0.2052 C.3       1 UNK         0.0000 
     12 H12         5.9794    1.1511    0.2521 H         1 UNK         0.0000 
     13 C13         5.0490   -0.1711    1.5560 C.3       1 UNK         0.0000 
     14 H14         6.0676   -0.5588    1.6301 H         1 UNK         0.0000 
     15 C15         4.9000    0.7288    2.7876 C.3       1 UNK         0.0000 
     16 C16         4.1670   -1.4554    1.5761 C.3       1 UNK         0.0000 
     17 C17         4.4100   -2.4309    0.3902 C.3       1 UNK         0.0000 
     18 H18         3.5749   -3.1389    0.3793 H         1 UNK         0.0000 
     19 C19         5.7152   -3.2347    0.5739 C.3       1 UNK         0.0000 
     20 C20         4.3934   -1.6679   -0.9625 C.3       1 UNK         0.0000 
     21 C21         5.3113   -0.4045   -0.9506 C.3       1 UNK         0.0000 
     22 H22         6.2983   -0.8007   -0.7105 H         1 UNK         0.0000 
     23 C23         5.5829    0.2428   -2.2997 C.2       1 UNK         0.0000 
     24 C24         5.3304   -0.2771   -3.5097 C.2       1 UNK         0.0000 
     25 H25         3.5465    5.1837    0.0032 H         1 UNK         0.0000 
     26 H26         1.1858    4.4513   -0.0067 H         1 UNK         0.0000 
     27 H27         5.1571    0.1783    3.6926 H         1 UNK         0.0000 
     28 H28         3.8903    1.1209    2.8871 H         1 UNK         0.0000 
     29 H29         5.5793    1.5810    2.7318 H         1 UNK         0.0000 
     30 H30         3.1105   -1.2032    1.6393 H         1 UNK         0.0000 
     31 H31         4.3488   -2.0026    2.5055 H         1 UNK         0.0000 
     32 H32         5.8448   -3.9553   -0.2362 H         1 UNK         0.0000 
     33 H33         5.6978   -3.8031    1.5062 H         1 UNK         0.0000 
     34 H34         6.6005   -2.5999    0.5957 H         1 UNK         0.0000 
     35 H35         4.7035   -2.3682   -1.7406 H         1 UNK         0.0000 
     36 H36         3.3664   -1.4231   -1.2138 H         1 UNK         0.0000 
     37 H37         6.0455    1.2196   -2.2605 H         1 UNK         0.0000 
     38 H38         4.8688   -1.2449   -3.6475 H         1 UNK         0.0000 
     39 H39         5.5793    0.2828   -4.3990 H         1 UNK         0.0000 
     40 O40         0.2432   -2.1725    0.2928 O.co2     1 UNK         0.0000 
     41 N41         0.0982   -2.4229    1.6126 N.am      1 UNK         0.0000 
     42 C42         0.0544   -1.3610    2.5179 C.2       1 UNK         0.0000 
     43 O43         0.0112   -0.1751    2.1622 O.co2     1 UNK         0.0000 
     44 C44         0.0871   -1.7274    3.9481 C.2       1 UNK         0.0000 
     45 C45         0.1096   -3.0519    4.3056 C.2       1 UNK         0.0000 
     46 O46         0.1727   -3.4531    5.5984 O.3       1 UNK         0.0000 
     47 C47         0.0911   -4.1024    3.3010 C.2       1 UNK         0.0000 
     48 C48         0.0869   -3.7265    2.0175 C.2       1 UNK         0.0000 
     49 C49         0.1240   -0.5620    5.0164 C.3       1 UNK         0.0000 
     50 H50         0.1035   -1.0824    5.9728 H         1 UNK         0.0000 
     51 C51         1.4494    0.2642    5.1155 C.3       1 UNK         0.0000 
     52 H52         1.4671    0.6343    6.1423 H         1 UNK         0.0000 
     53 C53         2.7122   -0.5952    4.9847 C.3       1 UNK         0.0000 
     54 C54         1.4796    1.5510    4.2394 C.3       1 UNK         0.0000 
     55 C55         0.2766    2.4981    4.4701 C.3       1 UNK         0.0000 
     56 H56         0.3117    3.2584    3.6832 H         1 UNK         0.0000 
     57 C57         0.3669    3.2268    5.8261 C.3       1 UNK         0.0000 
     58 C58        -1.0515    1.7171    4.2958 C.3       1 UNK         0.0000 
     59 C59        -1.1178    0.3940    5.1248 C.3       1 UNK         0.0000 
     60 H60        -1.0823    0.7419    6.1591 H         1 UNK         0.0000 
     61 C61        -2.4354   -0.3643    5.0031 C.2       1 UNK         0.0000 
     62 C62        -3.4574   -0.0969    4.1731 C.2       1 UNK         0.0000 
     63 H63         0.0962   -5.1545    3.5585 H         1 UNK         0.0000 
     64 H64         0.0828   -4.4305    1.1894 H         1 UNK         0.0000 
     65 H65         3.5958   -0.0196    5.2607 H         1 UNK         0.0000 
     66 H66         2.8402   -0.9674    3.9706 H         1 UNK         0.0000 
     67 H67         2.6706   -1.4587    5.6493 H         1 UNK         0.0000 
     68 H68         1.5802    1.3173    3.1822 H         1 UNK         0.0000 
     69 H69         2.3945    2.1081    4.4598 H         1 UNK         0.0000 
     70 H70        -0.4539    3.9373    5.9420 H         1 UNK         0.0000 
     71 H71         1.2953    3.7982    5.8982 H         1 UNK         0.0000 
     72 H72         0.3340    2.5424    6.6734 H         1 UNK         0.0000 
     73 H73        -1.8741    2.3745    4.5899 H         1 UNK         0.0000 
     74 H74        -1.2007    1.5390    3.2348 H         1 UNK         0.0000 
     75 H75        -2.5312   -1.2174    5.6612 H         1 UNK         0.0000 
     76 H76        -3.4410    0.7259    3.4720 H         1 UNK         0.0000 
     77 H77        -4.3419   -0.7180    4.1892 H         1 UNK         0.0000 
     78 O78        -2.2514    0.0299   -0.2614 O.co2     1 UNK         0.0000 
     79 N79        -2.5144    0.0466   -1.5880 N.am      1 UNK         0.0000 
     80 C80        -1.4678    0.0320   -2.5130 C.2       1 UNK         0.0000 
     81 O81        -0.2740   -0.0448   -2.1778 O.co2     1 UNK         0.0000 
     82 C82        -1.8711    0.1109   -3.9367 C.2       1 UNK         0.0000 
     83 C83        -3.2014    0.1282   -4.2722 C.2       1 UNK         0.0000 
     84 O84        -3.6314    0.1997   -5.5568 O.3       1 UNK         0.0000 
     85 C85        -4.2281    0.0943   -3.2454 C.2       1 UNK         0.0000 
     86 C86        -3.8232    0.0641   -1.9709 C.2       1 UNK         0.0000 
     87 C87        -0.7383    0.1861   -5.0303 C.3       1 UNK         0.0000 
     88 H88        -1.2792    0.1740   -5.9753 H         1 UNK         0.0000 
     89 C89         0.0538    1.5373   -5.1179 C.3       1 UNK         0.0000 
     90 H90         0.3884    1.5904   -6.1564 H         1 UNK         0.0000 
     91 C91        -0.7894    2.8010   -4.8794 C.3       1 UNK         0.0000 
     92 C92         1.3575    1.5676   -4.2900 C.3       1 UNK         0.0000 
     93 C93         2.2953    0.3716   -4.5476 C.3       1 UNK         0.0000 
     94 H94         3.0126    0.4356   -3.7367 H         1 UNK         0.0000 
     95 C95         3.0248    0.4733   -5.9039 C.3       1 UNK         0.0000 
     96 C96         1.5599   -0.9789   -4.3880 C.3       1 UNK         0.0000 
     97 C97         0.2221   -1.0507   -5.1819 C.3       1 UNK         0.0000 
     98 H98         0.5412   -0.9992   -6.2247 H         1 UNK         0.0000 
     99 C99        -0.5172   -2.3798   -5.0405 C.2       1 UNK         0.0000 
    100 C100       -0.2105   -3.4070   -4.2288 C.2       1 UNK         0.0000 
    101 H101       -5.2844    0.1042   -3.4773 H         1 UNK         0.0000 
    102 H102       -4.5072    0.0469   -1.1279 H         1 UNK         0.0000 
    103 H103       -0.2073    3.7004   -5.0928 H         1 UNK         0.0000 
    104 H104       -1.1326    2.8726   -3.8460 H         1 UNK         0.0000 
    105 H105       -1.6636    2.8139   -5.5303 H         1 UNK         0.0000 
    106 H106        1.1384    1.6559   -3.2271 H         1 UNK         0.0000 
    107 H107        1.9063    2.4889   -4.5093 H         1 UNK         0.0000 
    108 H108        3.7348   -0.3478   -6.0266 H         1 UNK         0.0000 
    109 H109        3.5979    1.4002   -5.9756 H         1 UNK         0.0000 
    110 H110        2.3368    0.4385   -6.7487 H         1 UNK         0.0000 
    111 H111        2.2315   -1.7793   -4.7127 H         1 UNK         0.0000 
    112 H112        1.4210   -1.1659   -3.3274 H         1 UNK         0.0000 
    113 H113       -1.3922   -2.4802   -5.6674 H         1 UNK         0.0000 
    114 H114        0.6362   -3.3916   -3.5571 H         1 UNK         0.0000 
    115 H115       -0.8244   -4.2971   -4.2296 H         1 UNK         0.0000 
    116 H116        5.5959    4.4591    0.1324 H         1 UNK         0.0000 
    117 H117        0.1731   -4.4102    5.6168 H         1 UNK         0.0000 
    118 H118       -4.5890    0.2084   -5.5531 H         1 UNK         0.0000 
@<TRIPOS>BOND
     1    1    2 nc   
     2    1    5 nc   
     3    1   40 nc   
     4    1   43 nc   
     5    1   78 nc   
     6    1   81 nc   
     7    2    3 1    
     8    3   10 1    
     9    3    4 am   BACKBONE|DICT|INTERRES
    10    4    5 2    
    11    4    6 1    
    12    6   11 1    
    13    6    7 2    
    14    7    8 1    
    15    7    9 1    
    16    8  116 1    
    17    9   25 1    
    18    9   10 2    
    19   10   26 1    
    20   11   12 1    
    21   11   13 1    
    22   11   21 1    
    23   13   16 1    
    24   13   14 1    
    25   13   15 1    
    26   15   28 1    
    27   15   27 1    
    28   15   29 1    
    29   16   30 1    
    30   16   31 1    
    31   16   17 1    
    32   17   18 1    
    33   17   19 1    
    34   17   20 1    
    35   19   33 1    
    36   19   32 1    
    37   19   34 1    
    38   20   21 1    
    39   20   35 1    
    40   20   36 1    
    41   21   22 1    
    42   21   23 1    
    43   23   37 1    
    44   23   24 2    
    45   24   38 1    
    46   24   39 1    
    47   40   41 1    
    48   41   48 1    
    49   41   42 am   BACKBONE|DICT|INTERRES
    50   42   43 2    
    51   42   44 1    
    52   44   45 2    
    53   44   49 1    
    54   45   46 1    
    55   45   47 1    
    56   46  117 1    
    57   47   63 1    
    58   47   48 2    
    59   48   64 1    
    60   49   51 1    
    61   49   59 1    
    62   49   50 1    
    63   51   52 1    
    64   51   53 1    
    65   51   54 1    
    66   53   65 1    
    67   53   67 1    
    68   53   66 1    
    69   54   69 1    
    70   54   55 1    
    71   54   68 1    
    72   55   56 1    
    73   55   57 1    
    74   55   58 1    
    75   57   71 1    
    76   57   70 1    
    77   57   72 1    
    78   58   73 1    
    79   58   59 1    
    80   58   74 1    
    81   59   60 1    
    82   59   61 1    
    83   61   75 1    
    84   61   62 2    
    85   62   77 1    
    86   62   76 1    
    87   78   79 1    
    88   79   80 am   BACKBONE|DICT|INTERRES
    89   79   86 1    
    90   80   82 1    
    91   80   81 2    
    92   82   83 2    
    93   82   87 1    
    94   83   85 1    
    95   83   84 1    
    96   84  118 1    
    97   85   86 2    
    98   85  101 1    
    99   86  102 1    
   100   87   88 1    
   101   87   89 1    
   102   87   97 1    
   103   89   90 1    
   104   89   91 1    
   105   89   92 1    
   106   91  104 1    
   107   91  103 1    
   108   91  105 1    
   109   92  106 1    
   110   92   93 1    
   111   92  107 1    
   112   93   96 1    
   113   93   94 1    
   114   93   95 1    
   115   95  108 1    
   116   95  109 1    
   117   95  110 1    
   118   96  112 1    
   119   96   97 1    
   120   96  111 1    
   121   97   98 1    
   122   97   99 1    
   123   99  100 2    
   124   99  113 1    
   125  100  115 1    
   126  100  114 1    
@<TRIPOS>SUBSTRUCTURE
     1 UNK         1 GROUP             0       ****    0 ROOT    
@<TRIPOS>MOLECULE
220_c1
73   81    1
SMALL
USER_CHARGES


@<TRIPOS>ATOM
      1 Fe1         0.0328    0.0941   -0.0256 Fe        1 UNK         0.0000 
      2 C2          6.3291    1.9210    2.3049 C.3       1 UNK         0.0000 
      3 O3          5.9543    0.6132    1.8906 O.3       1 UNK         0.0000 
      4 C4          4.6891    0.4057    1.3817 C.ar      1 UNK         0.0000 
      5 C5          3.7154    1.4102    1.3292 C.ar      1 UNK         0.0000 
      6 C6          2.4668    1.1966    0.7597 C.ar      1 UNK         0.0000 
      7 C7          1.5739    2.3918    0.5207 C.2       1 UNK         0.0000 
      8 O8          0.5143    2.2042   -0.1350 O.co2     1 UNK         0.0000 
      9 O9          1.8838    3.5025    0.9982 O.co2     1 UNK         0.0000 
     10 N10         2.1313   -0.0589    0.2885 N.pl3     1 UNK         0.0000 
     11 C11         3.0957   -1.0316    0.2013 C.ar      1 UNK         0.0000 
     12 C12         4.3795   -0.8544    0.7912 C.ar      1 UNK         0.0000 
     13 C13         2.8521   -2.1993   -0.5845 C.ar      1 UNK         0.0000 
     14 O14         1.7239   -2.2892   -1.3610 O.3       1 UNK         0.0000 
     15 C15         3.8139   -3.2077   -0.6536 C.ar      1 UNK         0.0000 
     16 C16         5.0289   -3.0745    0.0061 C.ar      1 UNK         0.0000 
     17 C17         5.3267   -1.9102    0.7092 C.ar      1 UNK         0.0000 
     18 H18         7.3570    1.9331    2.6568 H         1 UNK         0.0000 
     19 H19         5.6988    2.2799    3.1211 H         1 UNK         0.0000 
     20 H20         6.2603    2.6225    1.4716 H         1 UNK         0.0000 
     21 H21         3.9456    2.4097    1.6778 H         1 UNK         0.0000 
     22 H22         1.6470   -3.1441   -1.8142 H         1 UNK         0.0000 
     23 H23         3.6342   -4.0830   -1.2572 H         1 UNK         0.0000 
     24 H24         5.7635   -3.8664   -0.0539 H         1 UNK         0.0000 
     25 H25         6.2920   -1.7941    1.1824 H         1 UNK         0.0000 
     26 C26         0.3205   -2.5179    6.5834 C.3       1 UNK         0.0000 
     27 O27         0.6103   -1.2001    6.1341 O.3       1 UNK         0.0000 
     28 C28         0.3390   -0.8382    4.8248 C.ar      1 UNK         0.0000 
     29 C29         0.2358   -1.7504    3.7678 C.ar      1 UNK         0.0000 
     30 C30        -0.0177   -1.3387    2.4459 C.ar      1 UNK         0.0000 
     31 C31        -0.1133   -2.4009    1.3725 C.2       1 UNK         0.0000 
     32 O32        -0.3953   -2.0244    0.1926 O.co2     1 UNK         0.0000 
     33 O33         0.2206   -3.5680    1.6458 O.co2     1 UNK         0.0000 
     34 N34        -0.1947    0.0032    2.1339 N.pl3     1 UNK         0.0000 
     35 C35        -0.2312    0.9034    3.1952 C.ar      1 UNK         0.0000 
     36 C36         0.1358    0.5355    4.5308 C.ar      1 UNK         0.0000 
     37 C37        -0.6383    2.2578    2.9704 C.ar      1 UNK         0.0000 
     38 O38        -1.2228    2.6227    1.7838 O.3       1 UNK         0.0000 
     39 C39        -0.4477    3.2233    3.9629 C.ar      1 UNK         0.0000 
     40 C40         0.0307    2.8807    5.2221 C.ar      1 UNK         0.0000 
     41 C41         0.2686    1.5449    5.5336 C.ar      1 UNK         0.0000 
     42 H42         0.3087   -2.5557    7.6728 H         1 UNK         0.0000 
     43 H43         1.0668   -3.2362    6.2417 H         1 UNK         0.0000 
     44 H44        -0.6667   -2.8247    6.2368 H         1 UNK         0.0000 
     45 H45         0.3505   -2.8109    3.9860 H         1 UNK         0.0000 
     46 H46        -1.2471    3.5829    1.6353 H         1 UNK         0.0000 
     47 H47        -0.6933    4.2531    3.7481 H         1 UNK         0.0000 
     48 H48         0.1631    3.6442    5.9747 H         1 UNK         0.0000 
     49 H49         0.5891    1.2646    6.5307 H         1 UNK         0.0000 
     50 C50        -2.6072    0.0631   -6.6163 C.3       1 UNK         0.0000 
     51 O51        -1.2744   -0.2617   -6.2488 O.3       1 UNK         0.0000 
     52 C52        -0.8743   -0.1628   -4.9259 C.ar      1 UNK         0.0000 
     53 C53        -1.7531   -0.0675   -3.8511 C.ar      1 UNK         0.0000 
     54 C54        -1.3250    0.0568   -2.5190 C.ar      1 UNK         0.0000 
     55 C55        -2.4155    0.1763   -1.4650 C.2       1 UNK         0.0000 
     56 O56        -2.0759    0.4790   -0.2816 O.co2     1 UNK         0.0000 
     57 O57        -3.5953   -0.0505   -1.7967 O.co2     1 UNK         0.0000 
     58 N58         0.0318    0.0954   -2.2037 N.pl3     1 UNK         0.0000 
     59 C59         0.9347    0.0918   -3.2882 C.ar      1 UNK         0.0000 
     60 C60         0.5034   -0.1244   -4.6418 C.ar      1 UNK         0.0000 
     61 C61         2.3436    0.3659   -3.1417 C.ar      1 UNK         0.0000 
     62 O62         2.8881    0.8813   -2.0159 O.3       1 UNK         0.0000 
     63 C63         3.2415    0.1957   -4.1949 C.ar      1 UNK         0.0000 
     64 C64         2.8090   -0.1482   -5.4585 C.ar      1 UNK         0.0000 
     65 C65         1.4510   -0.2538   -5.7037 C.ar      1 UNK         0.0000 
     66 H66        -2.7005    0.1514   -7.6987 H         1 UNK         0.0000 
     67 H67        -2.9217    1.0151   -6.1830 H         1 UNK         0.0000 
     68 H68        -3.2882   -0.7232   -6.2927 H         1 UNK         0.0000 
     69 H69         3.8115    1.1443   -2.1146 H         1 UNK         0.0000 
     70 H70         4.2989    0.3630   -4.0412 H         1 UNK         0.0000 
     71 H71         3.5214   -0.2645   -6.2603 H         1 UNK         0.0000 
     72 H72         1.0979   -0.4207   -6.7141 H         1 UNK         0.0000 
     73 H73        -2.8165   -0.0982   -4.0659 H         1 UNK         0.0000 
@<TRIPOS>BOND
     1    1    8 nc   
     2    1   10 nc   
     3    1   32 nc   
     4    1   34 nc   
     5    1   56 nc   
     6    1   58 nc   
     7    2   18 1    
     8    2   19 1    
     9    2    3 1    
    10    2   20 1    
    11    3    4 1    
    12    4    5 ar   
    13    4   12 ar   
    14    5   21 1    
    15    5    6 ar   
    16    6    7 1    
    17    6   10 ar   
    18    7    9 2    
    19    7    8 1    
    20   10   11 ar   
    21   11   13 ar   
    22   11   12 ar   
    23   12   17 ar   
    24   13   15 ar   
    25   13   14 1    
    26   14   22 1    
    27   15   16 ar   
    28   15   23 1    
    29   16   24 1    
    30   16   17 ar   
    31   17   25 1    
    32   26   42 1    
    33   26   27 1    
    34   26   43 1    
    35   26   44 1    
    36   27   28 1    
    37   28   29 ar   
    38   28   36 ar   
    39   29   45 1    
    40   29   30 ar   
    41   30   31 1    
    42   30   34 ar   
    43   31   33 2    
    44   31   32 1    
    45   34   35 ar   
    46   35   37 ar   
    47   35   36 ar   
    48   36   41 ar   
    49   37   39 ar   
    50   37   38 1    
    51   38   46 1    
    52   39   40 ar   
    53   39   47 1    
    54   40   41 ar   
    55   40   48 1    
    56   41   49 1    
    57   50   68 1    
    58   50   67 1    
    59   50   51 1    
    60   50   66 1    
    61   51   52 1    
    62   52   60 ar   
    63   52   53 ar   
    64   53   54 ar   
    65   53   73 1    
    66   54   58 ar   
    67   54   55 1    
    68   55   56 1    
    69   55   57 2    
    70   58   59 ar   
    71   59   61 ar   
    72   59   60 ar   
    73   60   65 ar   
    74   61   62 1    
    75   61   63 ar   
    76   62   69 1    
    77   63   70 1    
    78   63   64 ar   
    79   64   65 ar   
    80   64   71 1    
    81   65   72 1    
@<TRIPOS>SUBSTRUCTURE
     1 UNK         1 GROUP             0       ****    0 ROOT    
@<TRIPOS>MOLECULE
220_c2
73   81    1
SMALL
USER_CHARGES


@<TRIPOS>ATOM
      1 Fe1         0.0859   -0.0257   -0.0363 Fe        1 UNK         0.0000 
      2 C2          6.8297    2.7888   -0.2470 C.3       1 UNK         0.0000 
      3 O3          6.1519    4.0180    0.0123 O.3       1 UNK         0.0000 
      4 C4          4.7705    4.0962    0.0776 C.ar      1 UNK         0.0000 
      5 C5          3.9277    2.9715    0.0530 C.ar      1 UNK         0.0000 
      6 C6          2.5449    3.1317    0.0693 C.ar      1 UNK         0.0000 
      7 C7          1.6384    1.9613   -0.0128 C.2       1 UNK         0.0000 
      8 O8          0.3590    2.1296   -0.0234 O.co2     1 UNK         0.0000 
      9 O9          2.1110    0.7797   -0.0648 O.co2     1 UNK         0.0000 
     10 N10         1.9634    4.3453    0.1506 N.ar      1 UNK         0.0000 
     11 C11         2.7238    5.4642    0.2121 C.ar      1 UNK         0.0000 
     12 C12         4.1505    5.3953    0.1773 C.ar      1 UNK         0.0000 
     13 C13         2.0642    6.7251    0.3154 C.ar      1 UNK         0.0000 
     14 O14         0.6923    6.8176    0.3551 O.3       1 UNK         0.0000 
     15 C15         2.8167    7.8953    0.3779 C.ar      1 UNK         0.0000 
     16 C16         4.2057    7.8456    0.3418 C.ar      1 UNK         0.0000 
     17 C17         4.8740    6.6252    0.2420 C.ar      1 UNK         0.0000 
     18 H18         6.2380    1.9414   -0.5856 H         1 UNK         0.0000 
     19 H19         7.3905    2.4863    0.6331 H         1 UNK         0.0000 
     20 H20         7.5668    2.9601   -1.0259 H         1 UNK         0.0000 
     21 H21         4.2843    1.9507    0.0196 H         1 UNK         0.0000 
     22 H22         0.3512    7.7095    0.4197 H         1 UNK         0.0000 
     23 H23         2.3416    8.8636    0.4568 H         1 UNK         0.0000 
     24 H24         4.7563    8.7718    0.3940 H         1 UNK         0.0000 
     25 H25         5.9528    6.6262    0.2206 H         1 UNK         0.0000 
     26 C26        -0.2832   -2.6883    6.8309 C.3       1 UNK         0.0000 
     27 O27        -0.0300   -3.9225    6.1621 O.3       1 UNK         0.0000 
     28 C28         0.0382   -4.0136    4.7813 C.ar      1 UNK         0.0000 
     29 C29         0.0257   -2.9012    3.9169 C.ar      1 UNK         0.0000 
     30 C30         0.0717   -3.0871    2.5366 C.ar      1 UNK         0.0000 
     31 C31         0.0765   -1.9467    1.5849 C.2       1 UNK         0.0000 
     32 O32         0.1465   -2.1618    0.3126 O.co2     1 UNK         0.0000 
     33 O33         0.0615   -0.7467    2.0235 O.co2     1 UNK         0.0000 
     34 N34         0.1396   -4.3129    1.9816 N.ar      1 UNK         0.0000 
     35 C35         0.1821   -5.4170    2.7607 C.ar      1 UNK         0.0000 
     36 C36         0.1352   -5.3251    4.1847 C.ar      1 UNK         0.0000 
     37 C37         0.2907   -6.6868    2.1179 C.ar      1 UNK         0.0000 
     38 O38         0.3626   -6.7924    0.7466 O.3       1 UNK         0.0000 
     39 C39         0.3362   -7.8467    2.8893 C.ar      1 UNK         0.0000 
     40 C40         0.2867   -7.7759    4.2776 C.ar      1 UNK         0.0000 
     41 C41         0.1888   -6.5448    4.9281 C.ar      1 UNK         0.0000 
     42 H42        -0.6096   -1.8392    6.2339 H         1 UNK         0.0000 
     43 H43         0.5934   -2.3930    7.4013 H         1 UNK         0.0000 
     44 H44        -1.0648   -2.8561    7.5663 H         1 UNK         0.0000 
     45 H45        -0.0104   -1.8738    4.2566 H         1 UNK         0.0000 
     46 H46         0.3836   -7.6884    0.4113 H         1 UNK         0.0000 
     47 H47         0.4137   -8.8216    2.4283 H         1 UNK         0.0000 
     48 H48         0.3241   -8.6935    4.8420 H         1 UNK         0.0000 
     49 H49         0.1601   -6.5251    6.0065 H         1 UNK         0.0000 
     50 C50        -2.6148   -0.2978   -6.8500 C.3       1 UNK         0.0000 
     51 O51        -3.8512   -0.0453   -6.1850 O.3       1 UNK         0.0000 
     52 C52        -3.9426    0.0310   -4.8034 C.ar      1 UNK         0.0000 
     53 C53        -2.8335    0.0226   -3.9385 C.ar      1 UNK         0.0000 
     54 C54        -3.0140    0.0495   -2.5579 C.ar      1 UNK         0.0000 
     55 C55        -1.8604   -0.0088   -1.6201 C.2       1 UNK         0.0000 
     56 O56        -2.0607    0.0046   -0.3447 O.co2     1 UNK         0.0000 
     57 O57        -0.6665   -0.0731   -2.0831 O.co2     1 UNK         0.0000 
     58 N58        -4.2434    0.1195   -2.0011 N.ar      1 UNK         0.0000 
     59 C59        -5.3497    0.1653   -2.7847 C.ar      1 UNK         0.0000 
     60 C60        -5.2536    0.1226   -4.2094 C.ar      1 UNK         0.0000 
     61 C61        -6.6310    0.2593   -2.1557 C.ar      1 UNK         0.0000 
     62 O62        -6.7606    0.3009   -0.7866 O.3       1 UNK         0.0000 
     63 C63        -7.7856    0.3066   -2.9364 C.ar      1 UNK         0.0000 
     64 C64        -7.7049    0.2595   -4.3234 C.ar      1 UNK         0.0000 
     65 C65        -6.4683    0.1677   -4.9633 C.ar      1 UNK         0.0000 
     66 H66        -1.7701   -0.6251   -6.2478 H         1 UNK         0.0000 
     67 H67        -2.3167    0.5831   -7.4131 H         1 UNK         0.0000 
     68 H68        -2.7741   -1.0821   -7.5853 H         1 UNK         0.0000 
     69 H69        -1.8106   -0.0067   -4.2865 H         1 UNK         0.0000 
     70 H70        -7.6606    0.3730   -0.4706 H         1 UNK         0.0000 
     71 H71        -8.7657    0.3757   -2.4838 H         1 UNK         0.0000 
     72 H72        -8.6180    0.2899   -4.8949 H         1 UNK         0.0000 
     73 H73        -6.4391    0.1321   -6.0422 H         1 UNK         0.0000 
@<TRIPOS>BOND
     1    1    8 nc   
     2    1    9 nc   
     3    1   32 nc   
     4    1   33 nc   
     5    1   56 nc   
     6    1   57 nc   
     7    2    3 1    
     8    2   19 1    
     9    2   18 1    
    10    2   20 1    
    11    3    4 1    
    12    4   12 ar   
    13    4    5 ar   
    14    5    6 ar   
    15    5   21 1    
    16    6   10 ar   
    17    6    7 1    
    18    7    8 2    
    19    7    9 1    
    20   10   11 ar   
    21   11   13 ar   
    22   11   12 ar   
    23   12   17 ar   
    24   13   14 1    
    25   13   15 ar   
    26   14   22 1    
    27   15   23 1    
    28   15   16 ar   
    29   16   24 1    
    30   16   17 ar   
    31   17   25 1    
    32   26   43 1    
    33   26   44 1    
    34   26   27 1    
    35   26   42 1    
    36   27   28 1    
    37   28   29 ar   
    38   28   36 ar   
    39   29   45 1    
    40   29   30 ar   
    41   30   31 1    
    42   30   34 ar   
    43   31   33 1    
    44   31   32 2    
    45   34   35 ar   
    46   35   36 ar   
    47   35   37 ar   
    48   36   41 ar   
    49   37   39 ar   
    50   37   38 1    
    51   38   46 1    
    52   39   40 ar   
    53   39   47 1    
    54   40   48 1    
    55   40   41 ar   
    56   41   49 1    
    57   50   66 1    
    58   50   51 1    
    59   50   67 1    
    60   50   68 1    
    61   51   52 1    
    62   52   60 ar   
    63   52   53 ar   
    64   53   54 ar   
    65   53   69 1    
    66   54   58 ar   
    67   54   55 1    
    68   55   56 1    
    69   55   57 2    
    70   58   59 ar   
    71   59   61 ar   
    72   59   60 ar   
    73   60   65 ar   
    74   61   62 1    
    75   61   63 ar   
    76   62   70 1    
    77   63   71 1    
    78   63   64 ar   
    79   64   65 ar   
    80   64   72 1    
    81   65   73 1    
@<TRIPOS>SUBSTRUCTURE
     1 UNK         1 GROUP             0       ****    0 ROOT    
@<TRIPOS>MOLECULE
221_c1
49   53    1
SMALL
USER_CHARGES


@<TRIPOS>ATOM
      1 Fe1        -1.1363   -2.4469    0.7435 Fe        1 UNK         0.0000 
      2 O2         -1.4382   -3.5130    2.3289 O.co2     1 UNK         0.0000 
      3 C3         -1.3391   -3.2658    3.5758 C.2       1 UNK         0.0000 
      4 O4         -1.5885   -4.0839    4.4913 O.co2     1 UNK         0.0000 
      5 C5         -0.8910   -1.8380    4.0447 C.3       1 UNK         0.0000 
      6 C6         -0.7789   -0.6538    2.9885 C.3       1 UNK         0.0000 
      7 O7          0.1343   -1.0879    1.9967 O.co2     1 UNK         0.0000 
      8 C8         -2.2187   -0.4308    2.3367 C.2       1 UNK         0.0000 
      9 O9         -2.5073   -1.2361    1.3913 O.co2     1 UNK         0.0000 
     10 O10        -2.9331    0.5351    2.7015 O.co2     1 UNK         0.0000 
     11 C11        -0.2590    0.6841    3.6511 C.3       1 UNK         0.0000 
     12 C12         0.1120    1.8928    2.7397 C.2       1 UNK         0.0000 
     13 O13         1.1500    2.5277    2.9454 O.2       1 UNK         0.0000 
     14 N14        -0.7749    2.2968    1.8109 N.am      1 UNK         0.0000 
     15 C15        -0.6627    3.4130    0.8696 C.3       1 UNK         0.0000 
     16 C16        -0.6203    2.9702   -0.6154 C.3       1 UNK         0.0000 
     17 C17         0.6926    2.2758   -1.0610 C.3       1 UNK         0.0000 
     18 C18         0.7168    1.9153   -2.5624 C.3       1 UNK         0.0000 
     19 N19        -0.1773    0.7914   -2.8235 N.am      1 UNK         0.0000 
     20 C20         0.1378   -0.3283   -3.4930 C.2       1 UNK         0.0000 
     21 O21         1.1480   -0.4212   -4.1983 O.2       1 UNK         0.0000 
     22 C22        -0.8785   -1.4886   -3.3552 C.3       1 UNK         0.0000 
     23 C23        -0.8488   -2.3417   -2.0283 C.3       1 UNK         0.0000 
     24 C24        -2.1677   -3.2273   -1.8789 C.2       1 UNK         0.0000 
     25 O25        -2.5730   -3.3785   -0.6768 O.co2     1 UNK         0.0000 
     26 O26        -2.7366   -3.6829   -2.9009 O.co2     1 UNK         0.0000 
     27 O27        -0.7691   -1.5182   -0.8830 O.co2     1 UNK         0.0000 
     28 C28         0.4134   -3.3039   -2.0595 C.3       1 UNK         0.0000 
     29 C29         0.8319   -4.1200   -0.8003 C.2       1 UNK         0.0000 
     30 O30         0.3097   -3.8478    0.3207 O.co2     1 UNK         0.0000 
     31 O31         1.7115   -4.9891   -0.9971 O.co2     1 UNK         0.0000 
     32 H32        -1.5471   -1.5520    4.8711 H         1 UNK         0.0000 
     33 H33         0.0968   -2.0038    4.4685 H         1 UNK         0.0000 
     34 H34        -0.9732    1.0367    4.3948 H         1 UNK         0.0000 
     35 H35         0.6473    0.4313    4.1965 H         1 UNK         0.0000 
     36 H36        -1.5996    1.6993    1.8005 H         1 UNK         0.0000 
     37 H37        -1.4776    4.1216    1.0379 H         1 UNK         0.0000 
     38 H38         0.2540    3.9726    1.0768 H         1 UNK         0.0000 
     39 H39        -1.4722    2.3179   -0.8361 H         1 UNK         0.0000 
     40 H40        -0.7577    3.8589   -1.2299 H         1 UNK         0.0000 
     41 H41         0.8463    1.3670   -0.4623 H         1 UNK         0.0000 
     42 H42         1.5463    2.9166   -0.8423 H         1 UNK         0.0000 
     43 H43         0.4068    2.7741   -3.1690 H         1 UNK         0.0000 
     44 H44         1.7504    1.7035   -2.8551 H         1 UNK         0.0000 
     45 H45        -0.9037    0.5875   -2.1487 H         1 UNK         0.0000 
     46 H46        -1.8640   -1.0419   -3.4708 H         1 UNK         0.0000 
     47 H47        -0.7495   -2.1515   -4.2125 H         1 UNK         0.0000 
     48 H48         1.2926   -2.6916   -2.2614 H         1 UNK         0.0000 
     49 H49         0.3441   -4.0134   -2.8895 H         1 UNK         0.0000 
@<TRIPOS>BOND
     1    1    2 nc   
     2    1    7 nc   
     3    1    9 nc   
     4    1   25 nc   
     5    1   27 nc   
     6    1   30 nc   
     7    2    3 1    
     8    3    5 1    
     9    3    4 2    
    10    5   33 1    
    11    5   32 1    
    12    5    6 1    
    13    6    7 1    
    14    6   11 1    
    15    6    8 1    
    16    8   10 2    
    17    8    9 1    
    18   11   35 1    
    19   11   34 1    
    20   11   12 1    
    21   12   13 2    
    22   12   14 am   BACKBONE|DICT|INTERRES
    23   14   15 1    
    24   14   36 1    
    25   15   37 1    
    26   15   38 1    
    27   15   16 1    
    28   16   17 1    
    29   16   39 1    
    30   16   40 1    
    31   17   42 1    
    32   17   41 1    
    33   17   18 1    
    34   18   19 1    
    35   18   43 1    
    36   18   44 1    
    37   19   45 1    
    38   19   20 am   BACKBONE|DICT|INTERRES
    39   20   21 2    
    40   20   22 1    
    41   22   46 1    
    42   22   23 1    
    43   22   47 1    
    44   23   28 1    
    45   23   24 1    
    46   23   27 1    
    47   24   25 1    
    48   24   26 2    
    49   28   29 1    
    50   28   48 1    
    51   28   49 1    
    52   29   31 2    
    53   29   30 1    
@<TRIPOS>SUBSTRUCTURE
     1 UNK         1 GROUP             0       ****    0 ROOT    
@<TRIPOS>MOLECULE
223_c1
76   80    1
SMALL
USER_CHARGES


@<TRIPOS>ATOM
      1 Fe1         0.2477    1.8444    0.1227 Fe        1 UNK         0.0000 
      2 C2         -0.0779    3.0059   -4.1163 C.3       1 UNK         0.0000 
      3 C3          0.3189    2.6116   -2.7011 C.2       1 UNK         0.0000 
      4 O4         -0.4912    2.1224   -1.9041 O.co2     1 UNK         0.0000 
      5 N5          1.5584    2.7275   -2.1842 N.am      1 UNK         0.0000 
      6 O6          1.7301    2.2001   -0.9803 O.co2     1 UNK         0.0000 
      7 C7          2.6581    3.5713   -2.6825 C.3       1 UNK         0.0000 
      8 C8          2.9998    4.8063   -1.8015 C.3       1 UNK         0.0000 
      9 C9          1.9116    5.9099   -1.7494 C.3       1 UNK         0.0000 
     10 N10         1.0249    5.8097   -0.5905 N.am      1 UNK         0.0000 
     11 C11        -0.3199    5.7607   -0.5743 C.2       1 UNK         0.0000 
     12 O12        -0.9902    5.8481   -1.6085 O.2       1 UNK         0.0000 
     13 C13        -1.0081    5.6197    0.8186 C.3       1 UNK         0.0000 
     14 C14        -0.8288    4.2761    1.6192 C.3       1 UNK         0.0000 
     15 O15        -1.3150    3.1956    0.8435 O.co2     1 UNK         0.0000 
     16 C16         0.7214    4.0642    1.8707 C.2       1 UNK         0.0000 
     17 O17         1.1227    3.0169    1.2856 O.co2     1 UNK         0.0000 
     18 O18         1.4338    5.0006    2.2994 O.co2     1 UNK         0.0000 
     19 C19        -1.5447    4.3436    3.0171 C.3       1 UNK         0.0000 
     20 C20        -1.4592    3.1338    3.9851 C.2       1 UNK         0.0000 
     21 O21        -0.9761    3.2761    5.1118 O.2       1 UNK         0.0000 
     22 N22        -1.9958    1.9644    3.5858 N.am      1 UNK         0.0000 
     23 C23        -2.0607    0.7565    4.4119 C.3       1 UNK         0.0000 
     24 C24        -2.0131   -0.5770    3.6350 C.3       1 UNK         0.0000 
     25 C25        -0.6701   -0.9562    2.9582 C.3       1 UNK         0.0000 
     26 N26        -0.4749   -0.3516    1.6467 N.am      1 UNK         0.0000 
     27 O27         0.2292    0.7441    1.5977 O.co2     1 UNK         0.0000 
     28 C28        -0.9308   -0.7527    0.4516 C.2       1 UNK         0.0000 
     29 O29        -0.6792    0.0787   -0.4256 O.co2     1 UNK         0.0000 
     30 C30        -1.4973   -2.0633    0.3182 C.2       1 UNK         0.0000 
     31 C31        -1.3919   -2.7699   -0.8179 C.2       1 UNK         0.0000 
     32 C32        -1.8310   -4.2064   -0.8928 C.3       1 UNK         0.0000 
     33 C33        -1.2057   -4.9768   -2.0663 C.3       1 UNK         0.0000 
     34 C34        -1.2266   -6.4935   -1.8242 C.3       1 UNK         0.0000 
     35 C35        -0.6153   -7.3073   -2.9775 C.3       1 UNK         0.0000 
     36 C36        -0.4174   -8.8016   -2.6323 C.3       1 UNK         0.0000 
     37 C37        -1.6855   -9.5637   -2.1937 C.3       1 UNK         0.0000 
     38 C38        -2.7800   -9.6119   -3.2701 C.3       1 UNK         0.0000 
     39 H39         0.6507    3.6327   -4.6235 H         1 UNK         0.0000 
     40 H40        -1.0163    3.5490   -4.0671 H         1 UNK         0.0000 
     41 H41        -0.2192    2.1061   -4.7095 H         1 UNK         0.0000 
     42 H42         2.4809    3.9464   -3.6906 H         1 UNK         0.0000 
     43 H43         3.5347    2.9287   -2.7613 H         1 UNK         0.0000 
     44 H44         3.9126    5.2633   -2.1947 H         1 UNK         0.0000 
     45 H45         3.2619    4.4743   -0.7962 H         1 UNK         0.0000 
     46 H46         2.3766    6.8957   -1.6914 H         1 UNK         0.0000 
     47 H47         1.3594    5.9310   -2.6921 H         1 UNK         0.0000 
     48 H48         1.4571    5.6773    0.3264 H         1 UNK         0.0000 
     49 H49        -2.0692    5.7855    0.6685 H         1 UNK         0.0000 
     50 H50        -0.6712    6.4530    1.4317 H         1 UNK         0.0000 
     51 H51        -1.1495    5.1989    3.5637 H         1 UNK         0.0000 
     52 H52        -2.6015    4.5503    2.8718 H         1 UNK         0.0000 
     53 H53        -2.2285    1.9271    2.6015 H         1 UNK         0.0000 
     54 H54        -2.9739    0.8010    5.0029 H         1 UNK         0.0000 
     55 H55        -1.2433    0.7581    5.1349 H         1 UNK         0.0000 
     56 H56        -2.2096   -1.3603    4.3714 H         1 UNK         0.0000 
     57 H57        -2.8330   -0.6103    2.9155 H         1 UNK         0.0000 
     58 H58         0.1654   -0.6800    3.6091 H         1 UNK         0.0000 
     59 H59        -0.5945   -2.0434    2.8785 H         1 UNK         0.0000 
     60 H60        -1.9697   -2.4744    1.1945 H         1 UNK         0.0000 
     61 H61        -0.9333   -2.3329   -1.7007 H         1 UNK         0.0000 
     62 H62        -2.9228   -4.2309   -0.9330 H         1 UNK         0.0000 
     63 H63        -1.5366   -4.6786    0.0519 H         1 UNK         0.0000 
     64 H64        -0.1672   -4.6591   -2.1929 H         1 UNK         0.0000 
     65 H65        -1.7205   -4.7155   -2.9943 H         1 UNK         0.0000 
     66 H66        -2.2536   -6.8202   -1.6450 H         1 UNK         0.0000 
     67 H67        -0.6729   -6.7109   -0.9072 H         1 UNK         0.0000 
     68 H68         0.3566   -6.8900   -3.2472 H         1 UNK         0.0000 
     69 H69        -1.2344   -7.2002   -3.8706 H         1 UNK         0.0000 
     70 H70         0.3236   -8.8824   -1.8354 H         1 UNK         0.0000 
     71 H71         0.0250   -9.3144   -3.4874 H         1 UNK         0.0000 
     72 H72        -2.0889   -9.1265   -1.2778 H         1 UNK         0.0000 
     73 H73        -1.4096  -10.5864   -1.9252 H         1 UNK         0.0000 
     74 H74        -2.4072  -10.0685   -4.1893 H         1 UNK         0.0000 
     75 H75        -3.1460   -8.6123   -3.5130 H         1 UNK         0.0000 
     76 H76        -3.6328  -10.2012   -2.9263 H         1 UNK         0.0000 
@<TRIPOS>BOND
     1    1    4 nc   
     2    1    6 nc   
     3    1   15 nc   
     4    1   17 nc   
     5    1   27 nc   
     6    1   29 nc   
     7    2    3 1    
     8    2   39 1    
     9    2   40 1    
    10    2   41 1    
    11    3    5 am   BACKBONE|DICT|INTERRES
    12    3    4 2    
    13    5    6 1    
    14    5    7 1    
    15    7   43 1    
    16    7    8 1    
    17    7   42 1    
    18    8    9 1    
    19    8   45 1    
    20    8   44 1    
    21    9   46 1    
    22    9   10 1    
    23    9   47 1    
    24   10   11 am   BACKBONE|DICT|INTERRES
    25   10   48 1    
    26   11   13 1    
    27   11   12 2    
    28   13   50 1    
    29   13   14 1    
    30   13   49 1    
    31   14   15 1    
    32   14   16 1    
    33   14   19 1    
    34   16   18 2    
    35   16   17 1    
    36   19   51 1    
    37   19   20 1    
    38   19   52 1    
    39   20   21 2    
    40   20   22 am   BACKBONE|DICT|INTERRES
    41   22   23 1    
    42   22   53 1    
    43   23   54 1    
    44   23   55 1    
    45   23   24 1    
    46   24   56 1    
    47   24   25 1    
    48   24   57 1    
    49   25   58 1    
    50   25   26 1    
    51   25   59 1    
    52   26   27 1    
    53   26   28 am   BACKBONE|DICT|INTERRES
    54   28   30 1    
    55   28   29 2    
    56   30   60 1    
    57   30   31 2    
    58   31   32 1    
    59   31   61 1    
    60   32   62 1    
    61   32   63 1    
    62   32   33 1    
    63   33   34 1    
    64   33   64 1    
    65   33   65 1    
    66   34   66 1    
    67   34   67 1    
    68   34   35 1    
    69   35   36 1    
    70   35   68 1    
    71   35   69 1    
    72   36   37 1    
    73   36   70 1    
    74   36   71 1    
    75   37   73 1    
    76   37   72 1    
    77   37   38 1    
    78   38   76 1    
    79   38   74 1    
    80   38   75 1    
@<TRIPOS>SUBSTRUCTURE
     1 UNK         1 GROUP             0       ****    0 ROOT    
@<TRIPOS>MOLECULE
224_c1
48   53    1
SMALL
USER_CHARGES


@<TRIPOS>ATOM
      1 Fe1         0.1923    0.4020    0.9020 Fe        1 UNK         0.0000 
      2 O2         -0.4481   -0.8288    2.5038 O.co2     1 UNK         0.0000 
      3 C3         -0.1170   -1.9808    2.2643 C.2       1 UNK         0.0000 
      4 C4         -0.8427   -3.1770    2.8692 C.3       1 UNK         0.0000 
      5 N5          0.9115   -2.0696    1.3899 N.am      1 UNK         0.0000 
      6 O6          1.6944   -1.0016    1.1827 O.co2     1 UNK         0.0000 
      7 C7          0.9924   -3.1318    0.3712 C.3       1 UNK         0.0000 
      8 C8         -0.3143   -3.4202   -0.4512 C.3       1 UNK         0.0000 
      9 C9         -0.4755   -2.9206   -1.9203 C.3       1 UNK         0.0000 
     10 C10        -0.6772   -1.4218   -2.3314 C.3       1 UNK         0.0000 
     11 H11        -1.0637   -1.4975   -3.3498 H         1 UNK         0.0000 
     12 N12         0.6339   -0.7267   -2.6087 N.am      1 UNK         0.0000 
     13 C13         0.8484    0.5451   -2.2247 C.2       1 UNK         0.0000 
     14 O14         1.2258    0.6972   -1.0739 O.co2     1 UNK         0.0000 
     15 C15        -1.8039   -0.5167   -1.5801 C.3       1 UNK         0.0000 
     16 O16        -1.4982   -0.3504   -0.2300 O.co2     1 UNK         0.0000 
     17 N17        -1.7073    0.8462   -2.1282 N.3       1 UNK         0.0000 
     18 C18        -0.4077    1.3666   -2.7077 C.3       1 UNK         0.0000 
     19 H19        -0.4458    1.1893   -3.7863 H         1 UNK         0.0000 
     20 C20        -0.1636    2.9096   -2.6352 C.3       1 UNK         0.0000 
     21 C21        -0.6443    3.7125   -1.3901 C.3       1 UNK         0.0000 
     22 C22         0.3229    3.8766   -0.1726 C.3       1 UNK         0.0000 
     23 N23         0.1728    2.9045    0.9212 N.am      1 UNK         0.0000 
     24 O24         1.1580    2.0237    1.0576 O.co2     1 UNK         0.0000 
     25 C25        -1.0102    2.6277    1.4807 C.2       1 UNK         0.0000 
     26 O26        -1.0639    1.4471    1.8125 O.co2     1 UNK         0.0000 
     27 C27        -2.1895    3.5972    1.5714 C.3       1 UNK         0.0000 
     28 H28        -0.1446   -3.7118    3.5116 H         1 UNK         0.0000 
     29 H29        -1.2385   -3.8789    2.1388 H         1 UNK         0.0000 
     30 H30        -1.6786   -2.8379    3.4850 H         1 UNK         0.0000 
     31 H31         1.2725   -4.0363    0.9219 H         1 UNK         0.0000 
     32 H32         1.8436   -2.9768   -0.2984 H         1 UNK         0.0000 
     33 H33        -0.3706   -4.5100   -0.5145 H         1 UNK         0.0000 
     34 H34        -1.2146   -3.1413    0.0985 H         1 UNK         0.0000 
     35 H35        -1.3499   -3.4480   -2.3110 H         1 UNK         0.0000 
     36 H36         0.3506   -3.3197   -2.5090 H         1 UNK         0.0000 
     37 H37         1.1717   -1.0445   -3.3998 H         1 UNK         0.0000 
     38 H38        -2.4853    1.0037   -2.7610 H         1 UNK         0.0000 
     39 H39         0.8740    3.1721   -2.8641 H         1 UNK         0.0000 
     40 H40        -0.7285    3.3255   -3.4750 H         1 UNK         0.0000 
     41 H41        -1.6454    3.3813   -1.1046 H         1 UNK         0.0000 
     42 H42        -0.7960    4.7350   -1.7513 H         1 UNK         0.0000 
     43 H43         0.1897    4.8655    0.2658 H         1 UNK         0.0000 
     44 H44         1.3568    3.8929   -0.5229 H         1 UNK         0.0000 
     45 H45        -2.4383    3.7597    2.6197 H         1 UNK         0.0000 
     46 H46        -3.0630    3.1744    1.0718 H         1 UNK         0.0000 
     47 H47        -1.9806    4.5695    1.1197 H         1 UNK         0.0000 
     48 H48        -2.8114   -0.9279   -1.6690 H         1 UNK         0.0000 
@<TRIPOS>BOND
     1    1    2 nc   
     2    1    6 nc   
     3    1   14 nc   
     4    1   16 nc   
     5    1   24 nc   
     6    1   26 nc   
     7    2    3 2    
     8    3    4 1    
     9    3    5 am   BACKBONE|DICT|INTERRES
    10    4   30 1    
    11    4   28 1    
    12    4   29 1    
    13    5    6 1    
    14    5    7 1    
    15    7   31 1    
    16    7    8 1    
    17    7   32 1    
    18    8   34 1    
    19    8    9 1    
    20    8   33 1    
    21    9   10 1    
    22    9   35 1    
    23    9   36 1    
    24   10   11 1    
    25   10   15 1    
    26   10   12 1    
    27   12   13 am   BACKBONE|DICT|INTERRES
    28   12   37 1    
    29   13   14 2    
    30   13   18 1    
    31   15   16 1    
    32   15   17 1    
    33   15   48 1    
    34   17   18 1    
    35   17   38 1    
    36   18   19 1    
    37   18   20 1    
    38   20   21 1    
    39   20   39 1    
    40   20   40 1    
    41   21   41 1    
    42   21   22 1    
    43   21   42 1    
    44   22   43 1    
    45   22   23 1    
    46   22   44 1    
    47   23   24 1    
    48   23   25 am   BACKBONE|DICT|INTERRES
    49   25   27 1    
    50   25   26 2    
    51   27   45 1    
    52   27   46 1    
    53   27   47 1    
@<TRIPOS>SUBSTRUCTURE
     1 UNK         1 GROUP             0       ****    0 ROOT    
@<TRIPOS>MOLECULE
229_c1
115   124    1
SMALL
USER_CHARGES


@<TRIPOS>ATOM
      1 Fe1         0.5726    1.2138    0.5775 Fe        1 UNK         0.0000 
      2 O2          1.8391    2.2202   -1.3092 O.co2     1 UNK         0.0000 
      3 C3          1.0025    2.3788   -2.2649 C.ar      1 UNK         0.0000 
      4 C4         -0.2946    1.9129   -2.0556 C.ar      1 UNK         0.0000 
      5 O5         -0.4859    1.1426   -1.0671 O.co2     1 UNK         0.0000 
      6 C6         -1.3176    2.2836   -2.9302 C.ar      1 UNK         0.0000 
      7 C7         -1.0497    3.0627   -4.0503 C.ar      1 UNK         0.0000 
      8 C8          0.2680    3.3953   -4.3464 C.ar      1 UNK         0.0000 
      9 C9          1.3093    2.9806   -3.5000 C.ar      1 UNK         0.0000 
     10 C10         2.6892    2.8707   -4.0824 C.2       1 UNK         0.0000 
     11 O11         3.4790    3.8130   -4.1664 O.2       1 UNK         0.0000 
     12 N12         2.9610    1.6974   -4.6950 N.am      1 UNK         0.0000 
     13 C13         1.9873    0.8593   -5.4494 C.3       1 UNK         0.0000 
     14 H14         1.1596    1.4774   -5.7879 H         1 UNK         0.0000 
     15 C15         2.6514    0.3499   -6.7627 C.3       1 UNK         0.0000 
     16 O16         3.9300   -0.2432   -6.5715 O.3       1 UNK         0.0000 
     17 C17         1.3974   -0.3178   -4.6550 C.2       1 UNK         0.0000 
     18 O18         2.0312   -1.3686   -4.4892 O.2       1 UNK         0.0000 
     19 O19         0.0351   -0.1802   -4.4735 O.3       1 UNK         0.0000 
     20 C20        -0.8167   -1.3137   -4.2452 C.3       1 UNK         0.0000 
     21 C21        -1.4454   -1.5303   -2.8371 C.3       1 UNK         0.0000 
     22 H22        -1.9192   -2.5110   -2.8840 H         1 UNK         0.0000 
     23 N23        -0.4553   -1.6445   -1.7671 N.am      1 UNK         0.0000 
     24 C24         0.3947   -2.6586   -1.5301 C.2       1 UNK         0.0000 
     25 O25         0.5209   -3.6248   -2.2964 O.2       1 UNK         0.0000 
     26 C26         0.8531   -2.7153   -0.0910 C.ar      1 UNK         0.0000 
     27 C27         0.6500   -3.9230    0.5984 C.ar      1 UNK         0.0000 
     28 C28         0.3750   -3.9379    1.9725 C.ar      1 UNK         0.0000 
     29 C29         0.2642   -2.7109    2.6459 C.ar      1 UNK         0.0000 
     30 C30         0.5950   -1.5314    1.9753 C.ar      1 UNK         0.0000 
     31 O31         0.3088   -0.3876    2.4125 O.co2     1 UNK         0.0000 
     32 C32         1.0767   -1.5472    0.6660 C.ar      1 UNK         0.0000 
     33 O33         1.4619   -0.4290    0.1883 O.co2     1 UNK         0.0000 
     34 C34         0.0978   -5.2818    2.6512 C.3       1 UNK         0.0000 
     35 H35         0.1480   -6.0271    1.8556 H         1 UNK         0.0000 
     36 O36        -1.2222   -5.3727    3.2104 O.3       1 UNK         0.0000 
     37 C37        -1.5870   -6.6889    3.6410 C.3       1 UNK         0.0000 
     38 H38        -1.5417   -7.3614    2.7818 H         1 UNK         0.0000 
     39 C39        -3.0667   -6.6437    4.0952 C.3       1 UNK         0.0000 
     40 O40        -3.5380   -7.9352    4.4655 O.3       1 UNK         0.0000 
     41 C41        -0.6054   -7.1640    4.7631 C.3       1 UNK         0.0000 
     42 H42        -0.7162   -6.4728    5.6025 H         1 UNK         0.0000 
     43 O43        -0.9102   -8.4723    5.2766 O.3       1 UNK         0.0000 
     44 C44         0.8670   -7.0742    4.2643 C.3       1 UNK         0.0000 
     45 H45         1.5350   -7.2682    5.1045 H         1 UNK         0.0000 
     46 O46         1.1530   -8.0997    3.3185 O.3       1 UNK         0.0000 
     47 C47         1.1726   -5.6620    3.7080 C.3       1 UNK         0.0000 
     48 H48         2.1461   -5.6742    3.2159 H         1 UNK         0.0000 
     49 O49         1.3092   -4.7221    4.7710 O.3       1 UNK         0.0000 
     50 C50        -2.6492   -0.6223   -2.4544 C.2       1 UNK         0.0000 
     51 O51        -3.5231   -0.3352   -3.2859 O.2       1 UNK         0.0000 
     52 O52        -2.7617   -0.2790   -1.1133 O.3       1 UNK         0.0000 
     53 C53        -3.8030    0.5571   -0.5580 C.3       1 UNK         0.0000 
     54 C54        -3.5144    2.0873   -0.2467 C.3       1 UNK         0.0000 
     55 H55        -2.4840    2.3503   -0.4409 H         1 UNK         0.0000 
     56 C56        -4.3331    2.9959   -1.1946 C.2       1 UNK         0.0000 
     57 O57        -3.9234    3.9619   -1.7988 O.2       1 UNK         0.0000 
     58 O58        -5.6478    2.6542   -1.2523 O.3       1 UNK         0.0000 
     59 N59        -3.8686    2.4777    1.1402 N.am      1 UNK         0.0000 
     60 C60        -3.4506    3.5443    1.8551 C.2       1 UNK         0.0000 
     61 O61        -4.3556    4.2133    2.3700 O.2       1 UNK         0.0000 
     62 C62        -1.9854    3.9551    2.0990 C.ar      1 UNK         0.0000 
     63 C63        -1.6929    5.2158    2.6608 C.ar      1 UNK         0.0000 
     64 C64        -0.3786    5.6307    2.9795 C.ar      1 UNK         0.0000 
     65 C65         0.6972    4.7759    2.6922 C.ar      1 UNK         0.0000 
     66 C66         0.4591    3.5294    2.1208 C.ar      1 UNK         0.0000 
     67 O67         1.3912    2.7265    1.7323 O.co2     1 UNK         0.0000 
     68 C68        -0.8707    3.1327    1.8676 C.ar      1 UNK         0.0000 
     69 O69        -0.9100    2.0137    1.3351 O.co2     1 UNK         0.0000 
     70 C70        -0.1452    7.0151    3.6128 C.3       1 UNK         0.0000 
     71 H71        -0.6301    7.7150    2.9281 H         1 UNK         0.0000 
     72 O72         1.2343    7.4208    3.5990 O.3       1 UNK         0.0000 
     73 C73         1.5659    8.7346    4.0787 C.3       1 UNK         0.0000 
     74 H74         1.4922    9.3747    3.1987 H         1 UNK         0.0000 
     75 C75         3.0556    8.7880    4.5064 C.3       1 UNK         0.0000 
     76 O76         3.3322    8.0753    5.7053 O.3       1 UNK         0.0000 
     77 C77         0.5281    9.3340    5.0783 C.3       1 UNK         0.0000 
     78 H78        -0.3237    9.7191    4.5129 H         1 UNK         0.0000 
     79 O79         1.0149   10.4838    5.7823 O.3       1 UNK         0.0000 
     80 C80        -0.0212    8.1692    5.9469 C.3       1 UNK         0.0000 
     81 H81         0.8390    7.6662    6.3869 H         1 UNK         0.0000 
     82 O82        -0.8182    8.5819    7.0590 O.3       1 UNK         0.0000 
     83 C83        -0.7982    7.1699    5.0324 C.3       1 UNK         0.0000 
     84 H84        -0.7983    6.2027    5.5412 H         1 UNK         0.0000 
     85 O85        -2.1734    7.5795    4.9078 O.3       1 UNK         0.0000 
     86 H86        -2.3247    1.9731   -2.7470 H         1 UNK         0.0000 
     87 H87        -1.8536    3.3336   -4.7139 H         1 UNK         0.0000 
     88 H88         0.4858    3.8852   -5.2803 H         1 UNK         0.0000 
     89 H89         3.9236    1.5855   -4.9542 H         1 UNK         0.0000 
     90 H90         2.0200   -0.3911   -7.2602 H         1 UNK         0.0000 
     91 H91         2.7503    1.1813   -7.4655 H         1 UNK         0.0000 
     92 H92         3.8419   -0.8445   -5.8212 H         1 UNK         0.0000 
     93 H93        -0.2648   -2.2257   -4.4896 H         1 UNK         0.0000 
     94 H94        -1.6086   -1.2819   -4.9923 H         1 UNK         0.0000 
     95 H95        -0.2883   -0.7868   -1.2322 H         1 UNK         0.0000 
     96 H96         0.5487   -4.8356    0.0296 H         1 UNK         0.0000 
     97 H97        -0.1115   -2.6410    3.6512 H         1 UNK         0.0000 
     98 H98        -3.1860   -5.9533    4.9322 H         1 UNK         0.0000 
     99 H99        -3.6908   -6.2623    3.2831 H         1 UNK         0.0000 
    100 H100       -2.7915   -8.3789    4.9009 H         1 UNK         0.0000 
    101 H101       -0.3870   -8.6098    6.0748 H         1 UNK         0.0000 
    102 H102        0.5424   -8.8208    3.5038 H         1 UNK         0.0000 
    103 H103        1.3785   -3.8428    4.3538 H         1 UNK         0.0000 
    104 H104       -4.7056    0.4332   -1.1594 H         1 UNK         0.0000 
    105 H105       -4.0532    0.0763    0.3899 H         1 UNK         0.0000 
    106 H106       -4.8387    2.3035    1.3144 H         1 UNK         0.0000 
    107 H107       -2.5118    5.8857    2.8536 H         1 UNK         0.0000 
    108 H108        1.7161    5.0696    2.8812 H         1 UNK         0.0000 
    109 H109        3.6808    8.3893    3.7066 H         1 UNK         0.0000 
    110 H110        3.3566    9.8265    4.6532 H         1 UNK         0.0000 
    111 H111        4.2004    8.3234    6.0336 H         1 UNK         0.0000 
    112 H112        0.7596   11.2731    5.3033 H         1 UNK         0.0000 
    113 H113       -1.6876    8.7961    6.6969 H         1 UNK         0.0000 
    114 H114       -2.6323    6.8709    4.4391 H         1 UNK         0.0000 
    115 H115       -5.9555    3.3237   -1.8639 H         1 UNK         0.0000 
@<TRIPOS>BOND
     1    1    2 nc   
     2    1    5 nc   
     3    1   31 nc   
     4    1   33 nc   
     5    1   67 nc   
     6    1   69 nc   
     7    2    3 1    
     8    3    4 ar   
     9    3    9 ar   
    10    4    5 1    
    11    4    6 ar   
    12    6   86 1    
    13    6    7 ar   
    14    7    8 ar   
    15    7   87 1    
    16    8    9 ar   
    17    8   88 1    
    18    9   10 1    
    19   10   11 2    
    20   10   12 am   BACKBONE|DICT|INTERRES
    21   12   13 1    
    22   12   89 1    
    23   13   14 1    
    24   13   17 1    
    25   13   15 1    
    26   15   16 1    
    27   15   90 1    
    28   15   91 1    
    29   16   92 1    
    30   17   19 1    
    31   17   18 2    
    32   19   20 1    
    33   20   21 1    
    34   20   93 1    
    35   20   94 1    
    36   21   22 1    
    37   21   50 1    
    38   21   23 1    
    39   23   24 am   BACKBONE|DICT|INTERRES
    40   23   95 1    
    41   24   26 1    
    42   24   25 2    
    43   26   27 ar   
    44   26   32 ar   
    45   27   28 ar   
    46   27   96 1    
    47   28   34 1    
    48   28   29 ar   
    49   29   97 1    
    50   29   30 ar   
    51   30   31 1    
    52   30   32 ar   
    53   32   33 1    
    54   34   35 1    
    55   34   36 1    
    56   34   47 1    
    57   36   37 1    
    58   37   38 1    
    59   37   39 1    
    60   37   41 1    
    61   39   40 1    
    62   39   98 1    
    63   39   99 1    
    64   40  100 1    
    65   41   43 1    
    66   41   42 1    
    67   41   44 1    
    68   43  101 1    
    69   44   45 1    
    70   44   46 1    
    71   44   47 1    
    72   46  102 1    
    73   47   48 1    
    74   47   49 1    
    75   49  103 1    
    76   50   52 1    
    77   50   51 2    
    78   52   53 1    
    79   53   54 1    
    80   53  105 1    
    81   53  104 1    
    82   54   55 1    
    83   54   59 1    
    84   54   56 1    
    85   56   57 2    
    86   56   58 1    
    87   58  115 1    
    88   59  106 1    
    89   59   60 am   BACKBONE|DICT|INTERRES
    90   60   62 1    
    91   60   61 2    
    92   62   63 ar   
    93   62   68 ar   
    94   63   64 ar   
    95   63  107 1    
    96   64   70 1    
    97   64   65 ar   
    98   65  108 1    
    99   65   66 ar   
   100   66   67 1    
   101   66   68 ar   
   102   68   69 1    
   103   70   71 1    
   104   70   72 1    
   105   70   83 1    
   106   72   73 1    
   107   73   74 1    
   108   73   75 1    
   109   73   77 1    
   110   75  110 1    
   111   75   76 1    
   112   75  109 1    
   113   76  111 1    
   114   77   78 1    
   115   77   79 1    
   116   77   80 1    
   117   79  112 1    
   118   80   81 1    
   119   80   82 1    
   120   80   83 1    
   121   82  113 1    
   122   83   84 1    
   123   83   85 1    
   124   85  114 1    
@<TRIPOS>SUBSTRUCTURE
     1 UNK         1 GROUP             0       ****    0 ROOT    
@<TRIPOS>MOLECULE
230_c1
112   122    1
SMALL
USER_CHARGES


@<TRIPOS>ATOM
      1 Fe1        -1.7390    0.1249   -0.8177 Fe        1 UNK         0.0000 
      2 O2         -1.0574  -10.5778    1.4106 O.3       1 UNK         0.0000 
      3 C3         -0.9664   -9.3007    0.7773 C.3       1 UNK         0.0000 
      4 H4         -0.3672   -9.4876   -0.1135 H         1 UNK         0.0000 
      5 C5         -0.2256   -8.2344    1.6402 C.3       1 UNK         0.0000 
      6 H6          0.8300   -8.4409    1.4489 H         1 UNK         0.0000 
      7 C7         -0.3753   -8.3333    3.1753 C.3       1 UNK         0.0000 
      8 O8         -1.7335   -8.2388    3.5957 O.3       1 UNK         0.0000 
      9 O9         -0.4400   -6.8800    1.2192 O.3       1 UNK         0.0000 
     10 C10        -0.8311   -6.6477   -0.1424 C.3       1 UNK         0.0000 
     11 H11        -0.0183   -7.0731   -0.7221 H         1 UNK         0.0000 
     12 C12        -2.1314   -7.4386   -0.5510 C.3       1 UNK         0.0000 
     13 H13        -3.0147   -6.8192   -0.4344 H         1 UNK         0.0000 
     14 O14        -2.0953   -7.7887   -1.9384 O.3       1 UNK         0.0000 
     15 C15        -2.3304   -8.7568    0.2839 C.3       1 UNK         0.0000 
     16 H16        -2.7287   -9.5223   -0.3822 H         1 UNK         0.0000 
     17 O17        -3.2791   -8.7032    1.3493 O.3       1 UNK         0.0000 
     18 C18        -0.7922   -5.1404   -0.4691 C.ar      1 UNK         0.0000 
     19 C19         0.3065   -4.5958   -1.1875 C.ar      1 UNK         0.0000 
     20 C20         0.4640   -3.2052   -1.3424 C.ar      1 UNK         0.0000 
     21 C21        -0.4400   -2.4003   -0.6291 C.ar      1 UNK         0.0000 
     22 O22        -0.3206   -1.1504   -0.5418 O.co2     1 UNK         0.0000 
     23 C23        -1.6372   -2.8905   -0.1332 C.ar      1 UNK         0.0000 
     24 O24        -2.5040   -1.9681    0.0684 O.co2     1 UNK         0.0000 
     25 C25        -1.8117   -4.2746   -0.0164 C.ar      1 UNK         0.0000 
     26 C26         1.4381   -2.5476   -2.3249 C.2       1 UNK         0.0000 
     27 O27         1.2123   -1.4412   -2.7793 O.2       1 UNK         0.0000 
     28 N28         2.5848   -3.1628   -2.6883 N.am      1 UNK         0.0000 
     29 C29         3.7076   -2.5112   -3.4644 C.3       1 UNK         0.0000 
     30 H30         4.3752   -3.3440   -3.6762 H         1 UNK         0.0000 
     31 C31         4.5561   -1.5132   -2.6097 C.3       1 UNK         0.0000 
     32 O32         3.7523   -0.6079   -1.8567 O.3       1 UNK         0.0000 
     33 C33         3.6421    0.7085   -2.1809 C.2       1 UNK         0.0000 
     34 O34         4.4487    1.2979   -2.9190 O.2       1 UNK         0.0000 
     35 C35         2.4128    1.3797   -1.5517 C.3       1 UNK         0.0000 
     36 H36         1.7833    0.5851   -1.1644 H         1 UNK         0.0000 
     37 N37         2.9192    2.1512   -0.4138 N.am      1 UNK         0.0000 
     38 C38         2.3277    2.9113    0.5197 C.2       1 UNK         0.0000 
     39 O39         3.1235    3.4159    1.3198 O.2       1 UNK         0.0000 
     40 C40         0.8468    3.3117    0.5903 C.ar      1 UNK         0.0000 
     41 C41        -0.2772    2.5221    0.2456 C.ar      1 UNK         0.0000 
     42 O42        -0.2978    1.4083   -0.3613 O.co2     1 UNK         0.0000 
     43 C43        -1.5864    2.9377    0.5669 C.ar      1 UNK         0.0000 
     44 O44        -2.4999    2.0923    0.2872 O.co2     1 UNK         0.0000 
     45 C45        -1.8307    4.2013    1.0995 C.ar      1 UNK         0.0000 
     46 C46         0.5540    4.5764    1.1310 C.ar      1 UNK         0.0000 
     47 C47        -0.7489    5.0541    1.3560 C.ar      1 UNK         0.0000 
     48 C48        -0.9001    6.5173    1.7920 C.3       1 UNK         0.0000 
     49 H49        -0.5209    7.0240    0.9074 H         1 UNK         0.0000 
     50 C50        -2.3285    7.0939    2.0086 C.3       1 UNK         0.0000 
     51 H51        -2.9391    6.9028    1.1188 H         1 UNK         0.0000 
     52 O52        -3.0411    6.5468    3.1227 O.3       1 UNK         0.0000 
     53 C53        -2.1764    8.6414    2.1548 C.3       1 UNK         0.0000 
     54 H54        -1.7048    9.0239    1.2550 H         1 UNK         0.0000 
     55 O55        -3.4367    9.2909    2.1897 O.3       1 UNK         0.0000 
     56 O56        -0.0477    6.8613    2.9075 O.3       1 UNK         0.0000 
     57 C57         0.1065    8.2639    3.1951 C.3       1 UNK         0.0000 
     58 H58         0.5662    8.6859    2.3024 H         1 UNK         0.0000 
     59 C59        -1.2550    9.0202    3.3415 C.3       1 UNK         0.0000 
     60 H60        -1.0453   10.0922    3.2762 H         1 UNK         0.0000 
     61 O61        -1.9598    8.8327    4.5589 O.3       1 UNK         0.0000 
     62 C62         1.1560    8.5004    4.3130 C.3       1 UNK         0.0000 
     63 O63         0.6774    8.1116    5.5830 O.3       1 UNK         0.0000 
     64 C64         1.6085    2.2086   -2.5929 C.3       1 UNK         0.0000 
     65 O65         1.3607    1.3537   -3.6897 O.3       1 UNK         0.0000 
     66 C66         0.5747    1.6542   -4.7181 C.2       1 UNK         0.0000 
     67 O67         0.0569    2.7555   -4.9402 O.2       1 UNK         0.0000 
     68 C68         0.6637    0.5582   -5.7837 C.3       1 UNK         0.0000 
     69 H69         0.4645    1.0536   -6.7337 H         1 UNK         0.0000 
     70 C70         2.1126   -0.0406   -5.9446 C.3       1 UNK         0.0000 
     71 O71         2.5718   -0.7901   -4.8109 O.3       1 UNK         0.0000 
     72 C72         3.3683   -1.8856   -4.8458 C.2       1 UNK         0.0000 
     73 O73         3.9108   -2.2924   -5.8814 O.2       1 UNK         0.0000 
     74 N74        -0.3260   -0.5305   -5.6703 N.am      1 UNK         0.0000 
     75 C75        -1.6497   -0.5149   -5.8816 C.2       1 UNK         0.0000 
     76 O76        -1.9734   -1.0235   -6.9571 O.2       1 UNK         0.0000 
     77 C77        -2.7345    0.0054   -4.9332 C.ar      1 UNK         0.0000 
     78 C78        -2.6274    0.1715   -3.5317 C.ar      1 UNK         0.0000 
     79 O79        -1.5602    0.2202   -2.8266 O.co2     1 UNK         0.0000 
     80 C80        -3.7934    0.2201   -2.7407 C.ar      1 UNK         0.0000 
     81 O81        -3.6162    0.1895   -1.4900 O.co2     1 UNK         0.0000 
     82 C82        -5.0638    0.2649   -3.2971 C.ar      1 UNK         0.0000 
     83 C83        -5.1813    0.2192   -4.6881 C.ar      1 UNK         0.0000 
     84 C84        -4.0407    0.0821   -5.4805 C.ar      1 UNK         0.0000 
     85 H85        -1.6378  -11.1404    0.8894 H         1 UNK         0.0000 
     86 H86         0.0523   -9.2699    3.5399 H         1 UNK         0.0000 
     87 H87         0.1976   -7.5340    3.6508 H         1 UNK         0.0000 
     88 H88        -1.7599   -8.2330    4.5551 H         1 UNK         0.0000 
     89 H89        -2.6221   -7.1339   -2.4189 H         1 UNK         0.0000 
     90 H90        -2.7593   -8.5012    2.1534 H         1 UNK         0.0000 
     91 H91         1.0263   -5.2533   -1.6278 H         1 UNK         0.0000 
     92 H92        -2.7264   -4.5937    0.4449 H         1 UNK         0.0000 
     93 H93         2.7609   -4.0100   -2.1812 H         1 UNK         0.0000 
     94 H94         5.1136   -2.0813   -1.8684 H         1 UNK         0.0000 
     95 H95         5.3176   -1.0251   -3.2160 H         1 UNK         0.0000 
     96 H96         3.8974    2.0476   -0.2389 H         1 UNK         0.0000 
     97 H97        -2.8594    4.4665    1.2665 H         1 UNK         0.0000 
     98 H98         1.3709    5.2201    1.3998 H         1 UNK         0.0000 
     99 H99        -3.5672    5.8021    2.7805 H         1 UNK         0.0000 
    100 H100       -3.3697   10.0117    2.8252 H         1 UNK         0.0000 
    101 H101       -2.4441    7.9894    4.4450 H         1 UNK         0.0000 
    102 H102        2.0766    7.9744    4.0606 H         1 UNK         0.0000 
    103 H103        1.4328    9.5496    4.3496 H         1 UNK         0.0000 
    104 H104       -0.2727    8.0011    5.4848 H         1 UNK         0.0000 
    105 H105        0.6792    2.6159   -2.2011 H         1 UNK         0.0000 
    106 H106        2.1760    3.0790   -2.9118 H         1 UNK         0.0000 
    107 H107        2.1488   -0.6643   -6.8385 H         1 UNK         0.0000 
    108 H108        2.8251    0.7645   -6.1131 H         1 UNK         0.0000 
    109 H109       -0.0328   -1.2719   -6.2749 H         1 UNK         0.0000 
    110 H110       -5.9248    0.3152   -2.6425 H         1 UNK         0.0000 
    111 H111       -6.1653    0.2174   -5.1252 H         1 UNK         0.0000 
    112 H112       -4.2064   -0.0530   -6.5405 H         1 UNK         0.0000 
@<TRIPOS>BOND
     1    1   22 nc   
     2    1   24 nc   
     3    1   42 nc   
     4    1   44 nc   
     5    1   79 nc   
     6    1   81 nc   
     7    2    3 1    
     8    2   85 1    
     9    3    4 1    
    10    3    5 1    
    11    3   15 1    
    12    5    6 1    
    13    5    7 1    
    14    5    9 1    
    15    7   86 1    
    16    7    8 1    
    17    7   87 1    
    18    8   88 1    
    19    9   10 1    
    20   10   11 1    
    21   10   12 1    
    22   10   18 1    
    23   12   13 1    
    24   12   15 1    
    25   12   14 1    
    26   14   89 1    
    27   15   16 1    
    28   15   17 1    
    29   17   90 1    
    30   18   25 ar   
    31   18   19 ar   
    32   19   20 ar   
    33   19   91 1    
    34   20   21 ar   
    35   20   26 1    
    36   21   23 ar   
    37   21   22 1    
    38   23   24 1    
    39   23   25 ar   
    40   25   92 1    
    41   26   27 2    
    42   26   28 am   BACKBONE|DICT|INTERRES
    43   28   93 1    
    44   28   29 1    
    45   29   30 1    
    46   29   31 1    
    47   29   72 1    
    48   31   32 1    
    49   31   94 1    
    50   31   95 1    
    51   32   33 1    
    52   33   35 1    
    53   33   34 2    
    54   35   36 1    
    55   35   37 1    
    56   35   64 1    
    57   37   96 1    
    58   37   38 am   BACKBONE|DICT|INTERRES
    59   38   40 1    
    60   38   39 2    
    61   40   46 ar   
    62   40   41 ar   
    63   41   43 ar   
    64   41   42 1    
    65   43   45 ar   
    66   43   44 1    
    67   45   97 1    
    68   45   47 ar   
    69   46   47 ar   
    70   46   98 1    
    71   47   48 1    
    72   48   49 1    
    73   48   50 1    
    74   48   56 1    
    75   50   51 1    
    76   50   53 1    
    77   50   52 1    
    78   52   99 1    
    79   53   54 1    
    80   53   55 1    
    81   53   59 1    
    82   55  100 1    
    83   56   57 1    
    84   57   58 1    
    85   57   59 1    
    86   57   62 1    
    87   59   60 1    
    88   59   61 1    
    89   61  101 1    
    90   62  103 1    
    91   62   63 1    
    92   62  102 1    
    93   63  104 1    
    94   64  105 1    
    95   64   65 1    
    96   64  106 1    
    97   65   66 1    
    98   66   67 2    
    99   66   68 1    
   100   68   69 1    
   101   68   70 1    
   102   68   74 1    
   103   70  108 1    
   104   70   71 1    
   105   70  107 1    
   106   71   72 1    
   107   72   73 2    
   108   74   75 am   BACKBONE|DICT|INTERRES
   109   74  109 1    
   110   75   77 1    
   111   75   76 2    
   112   77   78 ar   
   113   77   84 ar   
   114   78   80 ar   
   115   78   79 1    
   116   80   81 1    
   117   80   82 ar   
   118   82  110 1    
   119   82   83 ar   
   120   83   84 ar   
   121   83  111 1    
   122   84  112 1    
@<TRIPOS>SUBSTRUCTURE
     1 UNK         1 GROUP             0       ****    0 ROOT    
@<TRIPOS>MOLECULE
233_c1
54   58    1
SMALL
USER_CHARGES


@<TRIPOS>ATOM
      1 Fe1         0.4264    0.9124    1.1157 Fe        1 UNK         0.0000 
      2 O2          0.6789    0.2510    3.1898 O.co2     1 UNK         0.0000 
      3 C3          0.5230   -0.9717    3.3699 C.2       1 UNK         0.0000 
      4 C4          0.2710   -1.6239    4.7348 C.3       1 UNK         0.0000 
      5 N5          0.4841   -1.6551    2.2076 N.am      1 UNK         0.0000 
      6 O6          0.6069   -0.9162    1.1405 O.co2     1 UNK         0.0000 
      7 C7          0.2420   -3.0950    1.9823 C.3       1 UNK         0.0000 
      8 C8          0.2961   -3.6304    0.5088 C.3       1 UNK         0.0000 
      9 C9         -0.9466   -3.4091   -0.4024 C.3       1 UNK         0.0000 
     10 N10        -1.0113   -2.1204   -1.1098 N.am      1 UNK         0.0000 
     11 C11        -0.2606   -1.7333   -2.1579 C.2       1 UNK         0.0000 
     12 O12         0.5631   -2.4875   -2.6803 O.2       1 UNK         0.0000 
     13 C13        -0.5351   -0.3261   -2.7765 C.3       1 UNK         0.0000 
     14 C14        -0.2641    0.9800   -1.9332 C.3       1 UNK         0.0000 
     15 O15        -0.9935    0.9412   -0.7180 O.co2     1 UNK         0.0000 
     16 C16         1.2963    1.0498   -1.6136 C.2       1 UNK         0.0000 
     17 O17         1.5555    0.9249   -0.3776 O.co2     1 UNK         0.0000 
     18 O18         2.1064    1.4036   -2.4973 O.co2     1 UNK         0.0000 
     19 C19        -0.6619    2.2785   -2.7411 C.3       1 UNK         0.0000 
     20 C20        -0.6340    3.6578   -2.0205 C.2       1 UNK         0.0000 
     21 O21        -1.6673    4.3242   -1.9108 O.2       1 UNK         0.0000 
     22 N22         0.5548    4.1241   -1.5948 N.am      1 UNK         0.0000 
     23 C23         0.8123    5.4246   -0.9767 C.3       1 UNK         0.0000 
     24 C24         0.1899    5.6560    0.4190 C.3       1 UNK         0.0000 
     25 C25         0.7620    4.8615    1.6237 C.3       1 UNK         0.0000 
     26 N26         0.2913    3.4687    1.7647 N.am      1 UNK         0.0000 
     27 O27         1.1932    2.5248    1.5270 O.co2     1 UNK         0.0000 
     28 C28        -0.9688    3.0701    2.0490 C.2       1 UNK         0.0000 
     29 O29        -1.1363    1.8424    1.9668 O.co2     1 UNK         0.0000 
     30 C30        -2.0938    4.0269    2.4417 C.3       1 UNK         0.0000 
     31 H31         0.0389   -2.6852    4.6467 H         1 UNK         0.0000 
     32 H32        -0.5718   -1.1388    5.2253 H         1 UNK         0.0000 
     33 H33         1.1387   -1.5180    5.3804 H         1 UNK         0.0000 
     34 H34        -0.7144   -3.3699    2.4257 H         1 UNK         0.0000 
     35 H35         0.9978   -3.6321    2.5521 H         1 UNK         0.0000 
     36 H36         0.4527   -4.7065    0.5669 H         1 UNK         0.0000 
     37 H37         1.1834   -3.2494    0.0001 H         1 UNK         0.0000 
     38 H38        -1.8529   -3.5206    0.1906 H         1 UNK         0.0000 
     39 H39        -1.0012   -4.2252   -1.1286 H         1 UNK         0.0000 
     40 H40        -1.5294   -1.3518   -0.7057 H         1 UNK         0.0000 
     41 H41         0.0010   -0.2648   -3.7248 H         1 UNK         0.0000 
     42 H42        -1.5887   -0.3272   -3.0564 H         1 UNK         0.0000 
     43 H43        -1.6805    2.1498   -3.1133 H         1 UNK         0.0000 
     44 H44        -0.0537    2.3782   -3.6390 H         1 UNK         0.0000 
     45 H45         1.3333    3.4806   -1.7157 H         1 UNK         0.0000 
     46 H46         0.4930    6.2206   -1.6534 H         1 UNK         0.0000 
     47 H47         1.8978    5.5174   -0.9035 H         1 UNK         0.0000 
     48 H48        -0.8878    5.5371    0.3563 H         1 UNK         0.0000 
     49 H49         0.3458    6.7094    0.6393 H         1 UNK         0.0000 
     50 H50         1.8545    4.8894    1.5692 H         1 UNK         0.0000 
     51 H51         0.5418    5.4004    2.5456 H         1 UNK         0.0000 
     52 H52        -1.8030    5.0749    2.3904 H         1 UNK         0.0000 
     53 H53        -2.4194    3.8205    3.4624 H         1 UNK         0.0000 
     54 H54        -2.9463    3.8788    1.7772 H         1 UNK         0.0000 
@<TRIPOS>BOND
     1    1    2 nc   
     2    1    6 nc   
     3    1   15 nc   
     4    1   17 nc   
     5    1   27 nc   
     6    1   29 nc   
     7    2    3 2    
     8    3    4 1    
     9    3    5 am   BACKBONE|DICT|INTERRES
    10    4   31 1    
    11    4   32 1    
    12    4   33 1    
    13    5    6 1    
    14    5    7 1    
    15    7   34 1    
    16    7   35 1    
    17    7    8 1    
    18    8   36 1    
    19    8    9 1    
    20    8   37 1    
    21    9   38 1    
    22    9   10 1    
    23    9   39 1    
    24   10   40 1    
    25   10   11 am   BACKBONE|DICT|INTERRES
    26   11   12 2    
    27   11   13 1    
    28   13   14 1    
    29   13   41 1    
    30   13   42 1    
    31   14   16 1    
    32   14   15 1    
    33   14   19 1    
    34   16   17 1    
    35   16   18 2    
    36   19   20 1    
    37   19   43 1    
    38   19   44 1    
    39   20   21 2    
    40   20   22 am   BACKBONE|DICT|INTERRES
    41   22   23 1    
    42   22   45 1    
    43   23   47 1    
    44   23   24 1    
    45   23   46 1    
    46   24   49 1    
    47   24   25 1    
    48   24   48 1    
    49   25   26 1    
    50   25   51 1    
    51   25   50 1    
    52   26   28 am   BACKBONE|DICT|INTERRES
    53   26   27 1    
    54   28   29 2    
    55   28   30 1    
    56   30   53 1    
    57   30   52 1    
    58   30   54 1    
@<TRIPOS>SUBSTRUCTURE
     1 UNK         1 GROUP             0       ****    0 ROOT    
@<TRIPOS>MOLECULE
234_1_c1
53   58    1
SMALL
USER_CHARGES


@<TRIPOS>ATOM
      1 Fe1         0.2076   -0.9970    1.0084 Fe        1 UNK         0.0000 
      2 O2         -1.2449   -0.0009    1.9502 O.co2     1 UNK         0.0000 
      3 C3         -0.9672    1.1895    1.8102 C.2       1 UNK         0.0000 
      4 C4         -2.0798    2.2114    1.5901 C.3       1 UNK         0.0000 
      5 N5          0.3542    1.4418    1.7271 N.am      1 UNK         0.0000 
      6 O6          1.2792    0.5217    2.0941 O.co2     1 UNK         0.0000 
      7 C7          0.9013    2.7443    1.2848 C.3       1 UNK         0.0000 
      8 C8          0.4405    3.3274   -0.1003 C.3       1 UNK         0.0000 
      9 C9          1.1729    2.9156   -1.4101 C.3       1 UNK         0.0000 
     10 N10         0.7489    1.6840   -2.1121 N.am      1 UNK         0.0000 
     11 C11        -0.0445    1.6135   -3.2169 C.2       1 UNK         0.0000 
     12 O12        -0.5577    2.5553   -3.8145 O.2       1 UNK         0.0000 
     13 C13         1.0980    0.4479   -1.7188 C.2       1 UNK         0.0000 
     14 O14         1.1868    0.0152   -0.5721 O.co2     1 UNK         0.0000 
     15 C15         1.0621   -0.4215   -2.9520 C.3       1 UNK         0.0000 
     16 C16        -0.2367    0.0929   -3.5204 C.3       1 UNK         0.0000 
     17 O17        -0.3608   -0.1959   -4.9039 O.3       1 UNK         0.0000 
     18 C18        -1.5870   -0.4266   -2.8601 C.3       1 UNK         0.0000 
     19 C19        -1.4545   -1.6157   -1.8765 C.2       1 UNK         0.0000 
     20 O20        -1.2148   -1.3842   -0.6766 O.co2     1 UNK         0.0000 
     21 N21        -1.5921   -2.8684   -2.3616 N.am      1 UNK         0.0000 
     22 C22        -1.6715   -4.0953   -1.5612 C.3       1 UNK         0.0000 
     23 C23        -0.3508   -4.8967   -1.3197 C.3       1 UNK         0.0000 
     24 C24         0.8788   -4.2954   -0.5647 C.3       1 UNK         0.0000 
     25 N25         0.6972   -3.4656    0.6480 N.am      1 UNK         0.0000 
     26 O26         1.4579   -2.3727    0.6594 O.co2     1 UNK         0.0000 
     27 C27        -0.3535   -3.4603    1.4885 C.2       1 UNK         0.0000 
     28 O28        -0.5819   -2.2914    1.8217 O.co2     1 UNK         0.0000 
     29 C29        -1.2037   -4.6615    1.9073 C.3       1 UNK         0.0000 
     30 H30        -2.3268    2.2914    0.5336 H         1 UNK         0.0000 
     31 H31        -2.9831    1.8827    2.0987 H         1 UNK         0.0000 
     32 H32        -1.8158    3.1952    1.9764 H         1 UNK         0.0000 
     33 H33         0.6762    3.4671    2.0752 H         1 UNK         0.0000 
     34 H34         1.9940    2.7060    1.2804 H         1 UNK         0.0000 
     35 H35         0.7014    4.3847   -0.0079 H         1 UNK         0.0000 
     36 H36        -0.6357    3.3613   -0.2513 H         1 UNK         0.0000 
     37 H37         2.2501    2.8509   -1.2183 H         1 UNK         0.0000 
     38 H38         1.0704    3.7426   -2.1192 H         1 UNK         0.0000 
     39 H39         1.9332   -0.2209   -3.5845 H         1 UNK         0.0000 
     40 H40         1.0884   -1.4833   -2.7093 H         1 UNK         0.0000 
     41 H41        -0.3311   -1.1403   -5.0751 H         1 UNK         0.0000 
     42 H42        -2.0704    0.3664   -2.2756 H         1 UNK         0.0000 
     43 H43        -2.3547   -0.6294   -3.6163 H         1 UNK         0.0000 
     44 H44        -1.7780   -2.9825   -3.3512 H         1 UNK         0.0000 
     45 H45        -2.3838   -4.7673   -2.0513 H         1 UNK         0.0000 
     46 H46        -2.1529   -3.8582   -0.6138 H         1 UNK         0.0000 
     47 H47         0.0193   -5.2642   -2.2845 H         1 UNK         0.0000 
     48 H48        -0.6271   -5.8215   -0.8056 H         1 UNK         0.0000 
     49 H49         1.4267   -3.7135   -1.3154 H         1 UNK         0.0000 
     50 H50         1.5634   -5.0996   -0.2838 H         1 UNK         0.0000 
     51 H51        -0.6173   -5.3089    2.5586 H         1 UNK         0.0000 
     52 H52        -1.5697   -5.2613    1.0791 H         1 UNK         0.0000 
     53 H53        -2.0756   -4.3261    2.4711 H         1 UNK         0.0000 
@<TRIPOS>BOND
     1    1    2 nc   
     2    1    6 nc   
     3    1   14 nc   
     4    1   20 nc   
     5    1   26 nc   
     6    1   28 nc   
     7    2    3 2    
     8    3    4 1    
     9    3    5 am   BACKBONE|DICT|INTERRES
    10    4   31 1    
    11    4   32 1    
    12    4   30 1    
    13    5    6 1    
    14    5    7 1    
    15    7   34 1    
    16    7   33 1    
    17    7    8 1    
    18    8   35 1    
    19    8    9 1    
    20    8   36 1    
    21    9   37 1    
    22    9   10 1    
    23    9   38 1    
    24   10   13 am   BACKBONE|DICT|INTERRES
    25   10   11 am   BACKBONE|DICT|INTERRES
    26   11   12 2    
    27   11   16 1    
    28   13   14 2    
    29   13   15 1    
    30   15   40 1    
    31   15   16 1    
    32   15   39 1    
    33   16   17 1    
    34   16   18 1    
    35   17   41 1    
    36   18   42 1    
    37   18   19 1    
    38   18   43 1    
    39   19   20 2    
    40   19   21 am   BACKBONE|DICT|INTERRES
    41   21   22 1    
    42   21   44 1    
    43   22   23 1    
    44   22   46 1    
    45   22   45 1    
    46   23   48 1    
    47   23   24 1    
    48   23   47 1    
    49   24   50 1    
    50   24   25 1    
    51   24   49 1    
    52   25   26 1    
    53   25   27 am   BACKBONE|DICT|INTERRES
    54   27   28 2    
    55   27   29 1    
    56   29   53 1    
    57   29   51 1    
    58   29   52 1    
@<TRIPOS>SUBSTRUCTURE
     1 UNK         1 GROUP             0       ****    0 ROOT    
@<TRIPOS>MOLECULE
234_c1
53   58    1
SMALL
USER_CHARGES


@<TRIPOS>ATOM
      1 Fe1         0.0245    0.5165    1.1325 Fe        1 UNK         0.0000 
      2 O2          0.3340   -0.6627    2.4566 O.co2     1 UNK         0.0000 
      3 C3          0.1428   -1.8465    2.1631 C.2       1 UNK         0.0000 
      4 C4          1.2902   -2.8487    2.2897 C.3       1 UNK         0.0000 
      5 N5         -0.9142   -1.9829    1.3373 N.am      1 UNK         0.0000 
      6 O6         -1.6657   -0.9125    1.0633 O.co2     1 UNK         0.0000 
      7 C7         -1.2167   -3.1667    0.5118 C.3       1 UNK         0.0000 
      8 C8         -0.4149   -3.2584   -0.8177 C.3       1 UNK         0.0000 
      9 C9         -0.5997   -2.1028   -1.8542 C.3       1 UNK         0.0000 
     10 N10         0.6076   -1.2895   -2.1695 N.am      1 UNK         0.0000 
     11 C11         0.7619   -0.6389   -3.3511 C.2       1 UNK         0.0000 
     12 O12         0.0962   -0.7911   -4.3655 O.2       1 UNK         0.0000 
     13 C13         1.4481   -0.7894   -1.2603 C.2       1 UNK         0.0000 
     14 O14         1.1657   -0.5536   -0.0791 O.co2     1 UNK         0.0000 
     15 C15         2.5947   -0.1210   -1.9621 C.3       1 UNK         0.0000 
     16 C16         1.8554    0.4412   -3.1282 C.3       1 UNK         0.0000 
     17 O17         2.7098    0.5596   -4.2533 O.3       1 UNK         0.0000 
     18 C18         1.1974    1.8795   -2.9660 C.3       1 UNK         0.0000 
     19 C19         0.3548    2.3232   -1.7157 C.2       1 UNK         0.0000 
     20 O20         0.3531    1.6910   -0.6265 O.co2     1 UNK         0.0000 
     21 N21        -0.3212    3.4715   -1.8609 N.am      1 UNK         0.0000 
     22 C22        -1.2273    4.0881   -0.8597 C.3       1 UNK         0.0000 
     23 C23        -0.5330    4.8343    0.3103 C.3       1 UNK         0.0000 
     24 C24        -0.8251    4.2899    1.7407 C.3       1 UNK         0.0000 
     25 N25        -0.3060    2.9273    1.9550 N.am      1 UNK         0.0000 
     26 O26        -1.1147    1.9445    1.5463 O.co2     1 UNK         0.0000 
     27 C27         0.9923    2.6549    2.2417 C.2       1 UNK         0.0000 
     28 O28         1.2869    1.4826    2.0150 O.co2     1 UNK         0.0000 
     29 C29         2.0645    3.6518    2.6179 C.3       1 UNK         0.0000 
     30 H30         1.6156   -2.9622    3.3215 H         1 UNK         0.0000 
     31 H31         1.1144   -3.8276    1.8582 H         1 UNK         0.0000 
     32 H32         2.1522   -2.4424    1.7609 H         1 UNK         0.0000 
     33 H33        -2.2799   -3.1205    0.2580 H         1 UNK         0.0000 
     34 H34        -1.1053   -4.0852    1.0906 H         1 UNK         0.0000 
     35 H35        -0.7369   -4.1710   -1.3159 H         1 UNK         0.0000 
     36 H36         0.6412   -3.4285   -0.5906 H         1 UNK         0.0000 
     37 H37        -0.9183   -2.5591   -2.8005 H         1 UNK         0.0000 
     38 H38        -1.4242   -1.4456   -1.5655 H         1 UNK         0.0000 
     39 H39         3.3823   -0.8453   -2.2066 H         1 UNK         0.0000 
     40 H40         3.0384    0.6537   -1.3359 H         1 UNK         0.0000 
     41 H41         3.4850    1.0904   -4.0512 H         1 UNK         0.0000 
     42 H42         0.5664    2.0709   -3.8365 H         1 UNK         0.0000 
     43 H43         1.9847    2.6293   -3.0602 H         1 UNK         0.0000 
     44 H44        -0.3011    3.9364   -2.7581 H         1 UNK         0.0000 
     45 H45        -1.9792    3.3855   -0.5060 H         1 UNK         0.0000 
     46 H46        -1.7958    4.8203   -1.4380 H         1 UNK         0.0000 
     47 H47         0.5476    4.8952    0.1633 H         1 UNK         0.0000 
     48 H48        -0.8577    5.8745    0.2766 H         1 UNK         0.0000 
     49 H49        -0.4474    4.9914    2.4921 H         1 UNK         0.0000 
     50 H50        -1.9140    4.2898    1.8994 H         1 UNK         0.0000 
     51 H51         2.4541    3.3524    3.5872 H         1 UNK         0.0000 
     52 H52         2.8705    3.5515    1.8913 H         1 UNK         0.0000 
     53 H53         1.7515    4.6891    2.6532 H         1 UNK         0.0000 
@<TRIPOS>BOND
     1    1    2 nc   
     2    1    6 nc   
     3    1   14 nc   
     4    1   20 nc   
     5    1   26 nc   
     6    1   28 nc   
     7    2    3 2    
     8    3    4 1    
     9    3    5 am   BACKBONE|DICT|INTERRES
    10    4   30 1    
    11    4   31 1    
    12    4   32 1    
    13    5    6 1    
    14    5    7 1    
    15    7   34 1    
    16    7    8 1    
    17    7   33 1    
    18    8   36 1    
    19    8    9 1    
    20    8   35 1    
    21    9   38 1    
    22    9   10 1    
    23    9   37 1    
    24   10   13 am   BACKBONE|DICT|INTERRES
    25   10   11 am   BACKBONE|DICT|INTERRES
    26   11   16 1    
    27   11   12 2    
    28   13   14 2    
    29   13   15 1    
    30   15   40 1    
    31   15   16 1    
    32   15   39 1    
    33   16   17 1    
    34   16   18 1    
    35   17   41 1    
    36   18   19 1    
    37   18   42 1    
    38   18   43 1    
    39   19   20 2    
    40   19   21 am   BACKBONE|DICT|INTERRES
    41   21   22 1    
    42   21   44 1    
    43   22   45 1    
    44   22   23 1    
    45   22   46 1    
    46   23   24 1    
    47   23   47 1    
    48   23   48 1    
    49   24   50 1    
    50   24   25 1    
    51   24   49 1    
    52   25   27 am   BACKBONE|DICT|INTERRES
    53   25   26 1    
    54   27   29 1    
    55   27   28 2    
    56   29   53 1    
    57   29   51 1    
    58   29   52 1    
@<TRIPOS>SUBSTRUCTURE
     1 UNK         1 GROUP             0       ****    0 ROOT    
@<TRIPOS>MOLECULE
235_c1
46   53    1
SMALL
USER_CHARGES


@<TRIPOS>ATOM
      1 Fe1        -0.6502    1.6440    0.8295 Fe        1 UNK         0.0000 
      2 C2          0.2670   -2.9911    1.6695 C.ar      1 UNK         0.0000 
      3 C3          1.5553   -2.5657    1.9867 C.ar      1 UNK         0.0000 
      4 C4          1.8303   -1.2020    2.0679 C.ar      1 UNK         0.0000 
      5 C5          0.8043   -0.2679    1.9642 C.ar      1 UNK         0.0000 
      6 O6          1.1318    0.9580    1.7996 O.co2     1 UNK         0.0000 
      7 C7         -0.5377   -0.7129    1.8981 C.ar      1 UNK         0.0000 
      8 O8         -1.5108    0.1103    2.0547 O.co2     1 UNK         0.0000 
      9 C9         -0.7828   -2.0648    1.5346 C.ar      1 UNK         0.0000 
     10 C10        -1.9580   -2.4250    0.6693 C.2       1 UNK         0.0000 
     11 O11        -1.6835   -3.4570   -0.1987 O.3       1 UNK         0.0000 
     12 C12        -2.1530   -3.1107   -1.4930 C.3       1 UNK         0.0000 
     13 N13        -2.7814   -1.6115    0.1192 N.2       1 UNK         0.0000 
     14 C14        -2.4152   -1.6186   -1.2850 C.3       1 UNK         0.0000 
     15 H15        -3.2497   -1.2503   -1.8864 H         1 UNK         0.0000 
     16 C16        -1.1639   -0.6865   -1.5640 C.2       1 UNK         0.0000 
     17 O17        -0.9058    0.2467   -0.7909 O.co2     1 UNK         0.0000 
     18 N18        -0.3119   -0.9954   -2.5640 N.am      1 UNK         0.0000 
     19 C19         1.1112   -0.5947   -2.6573 C.3       1 UNK         0.0000 
     20 C20         1.4650    0.9131   -2.7986 C.3       1 UNK         0.0000 
     21 C21         1.5291    1.6287   -1.4417 C.2       1 UNK         0.0000 
     22 N22         0.7248    2.5035   -0.9673 N.am      1 UNK         0.0000 
     23 C23         0.0786    3.4560   -1.8215 C.2       1 UNK         0.0000 
     24 O24         0.4043    3.7232   -2.9854 O.2       1 UNK         0.0000 
     25 C25        -0.8908    4.3079   -1.0273 C.ar      1 UNK         0.0000 
     26 C26        -1.5670    3.6760    0.0252 C.ar      1 UNK         0.0000 
     27 O27        -1.9741    2.4728   -0.0628 O.co2     1 UNK         0.0000 
     28 C28        -1.0638    4.0382    1.2675 C.ar      1 UNK         0.0000 
     29 O29        -0.6397    3.0406    1.9193 O.co2     1 UNK         0.0000 
     30 C30        -0.6421    5.3391    1.5130 C.ar      1 UNK         0.0000 
     31 C31        -0.5459    6.2112    0.4161 C.ar      1 UNK         0.0000 
     32 C32        -0.6075    5.6790   -0.8830 C.ar      1 UNK         0.0000 
     33 H33         0.1173   -4.0373    1.4425 H         1 UNK         0.0000 
     34 H34         2.3643   -3.2765    2.0593 H         1 UNK         0.0000 
     35 H35         2.8483   -0.8673    2.1942 H         1 UNK         0.0000 
     36 H36        -3.0885   -3.6391   -1.6918 H         1 UNK         0.0000 
     37 H37        -1.4372   -3.3674   -2.2773 H         1 UNK         0.0000 
     38 H38        -0.6094   -1.6968   -3.2185 H         1 UNK         0.0000 
     39 H39         1.4870   -1.0776   -3.5605 H         1 UNK         0.0000 
     40 H40         1.6637   -1.0665   -1.8397 H         1 UNK         0.0000 
     41 H41         2.4529    1.0235   -3.2537 H         1 UNK         0.0000 
     42 H42         0.7671    1.3602   -3.5011 H         1 UNK         0.0000 
     43 H43        -0.2218    6.2560   -1.7118 H         1 UNK         0.0000 
     44 H44        -0.2249    7.2315    0.5569 H         1 UNK         0.0000 
     45 H45        -0.2869    5.6361    2.4863 H         1 UNK         0.0000 
     46 H46         2.3064    1.2025   -0.8079 H         1 UNK         0.0000 
@<TRIPOS>BOND
     1    1    6 nc   
     2    1    8 nc   
     3    1   17 nc   
     4    1   22 nc   
     5    1   27 nc   
     6    1   29 nc   
     7    2    3 ar   
     8    2    9 ar   
     9    2   33 1    
    10    3   34 1    
    11    3    4 ar   
    12    4   35 1    
    13    4    5 ar   
    14    5    6 1    
    15    5    7 ar   
    16    7    8 1    
    17    7    9 ar   
    18    9   10 1    
    19   10   11 1    
    20   10   13 2    
    21   11   12 1    
    22   12   36 1    
    23   12   14 1    
    24   12   37 1    
    25   13   14 1    
    26   14   15 1    
    27   14   16 1    
    28   16   17 2    
    29   16   18 am   BACKBONE|DICT|INTERRES
    30   18   19 1    
    31   18   38 1    
    32   19   40 1    
    33   19   20 1    
    34   19   39 1    
    35   20   21 1    
    36   20   41 1    
    37   20   42 1    
    38   21   22 2    
    39   21   46 1    
    40   22   23 am   BACKBONE|DICT|INTERRES
    41   23   24 2    
    42   23   25 1    
    43   25   32 ar   
    44   25   26 ar   
    45   26   27 1    
    46   26   28 ar   
    47   28   30 ar   
    48   28   29 1    
    49   30   31 ar   
    50   30   45 1    
    51   31   32 ar   
    52   31   44 1    
    53   32   43 1    
@<TRIPOS>SUBSTRUCTURE
     1 UNK         1 GROUP             0       ****    0 ROOT    
@<TRIPOS>MOLECULE
236_c1
51   58    1
SMALL
USER_CHARGES


@<TRIPOS>ATOM
      1 Fe1         0.3086    1.2328    1.2882 Fe        1 UNK         0.0000 
      2 C2          0.5158   -3.7584    2.6709 C.ar      1 UNK         0.0000 
      3 C3          0.0308   -3.2875    3.8896 C.ar      1 UNK         0.0000 
      4 C4         -0.0104   -1.9072    4.1179 C.ar      1 UNK         0.0000 
      5 C5          0.4960   -1.0274    3.1685 C.ar      1 UNK         0.0000 
      6 O6          0.1420    0.1763    3.1621 O.co2     1 UNK         0.0000 
      7 C7          1.1893   -1.4738    2.0525 C.ar      1 UNK         0.0000 
      8 O8          1.6879   -0.5699    1.2698 O.co2     1 UNK         0.0000 
      9 C9          1.0574   -2.8567    1.7361 C.ar      1 UNK         0.0000 
     10 C10         0.7406   -3.1039    0.3356 C.2       1 UNK         0.0000 
     11 O11         1.6049   -3.5722   -0.6103 O.3       1 UNK         0.0000 
     12 C12         1.0244   -3.1027   -1.8231 C.3       1 UNK         0.0000 
     13 H13         0.5247   -3.9312   -2.3332 H         1 UNK         0.0000 
     14 C14         2.1738   -2.5450   -2.6910 C.3       1 UNK         0.0000 
     15 N15        -0.3491   -2.6805   -0.1232 N.2       1 UNK         0.0000 
     16 C16         0.0467   -2.0620   -1.2530 C.2       1 UNK         0.0000 
     17 C17        -0.1342   -0.7534   -1.5410 C.2       1 UNK         0.0000 
     18 O18        -0.2542    0.2006   -0.6567 O.co2     1 UNK         0.0000 
     19 N19        -0.2117   -0.3607   -2.8749 N.pl3     1 UNK         0.0000 
     20 C20         0.3937    0.6800   -3.6872 C.3       1 UNK         0.0000 
     21 C21         0.5173    2.0369   -3.0055 C.3       1 UNK         0.0000 
     22 C22        -0.8212    2.6869   -2.6290 C.3       1 UNK         0.0000 
     23 N23        -0.4367    3.8292   -1.8067 N.3       1 UNK         0.0000 
     24 C24        -0.7246    3.8533   -0.3830 C.3       1 UNK         0.0000 
     25 O25        -1.1080    2.5769    0.1339 O.co2     1 UNK         0.0000 
     26 C26         0.5993    4.3426    0.3167 C.ar      1 UNK         0.0000 
     27 C27         1.3227    3.4229    1.1269 C.ar      1 UNK         0.0000 
     28 O28         1.8452    2.3111    0.7127 O.co2     1 UNK         0.0000 
     29 C29         0.7724    3.4494    2.4071 C.ar      1 UNK         0.0000 
     30 O30        -0.1096    2.5600    2.5860 O.co2     1 UNK         0.0000 
     31 C31         0.5429    4.6806    3.0230 C.ar      1 UNK         0.0000 
     32 C32         0.5631    5.8318    2.2269 C.ar      1 UNK         0.0000 
     33 C33         0.5500    5.6596    0.8313 C.ar      1 UNK         0.0000 
     34 H34         0.2908   -4.7755    2.3848 H         1 UNK         0.0000 
     35 H35        -0.4633   -3.9538    4.5796 H         1 UNK         0.0000 
     36 H36        -0.5164   -1.5184    4.9834 H         1 UNK         0.0000 
     37 H37         2.9831   -3.2671   -2.8031 H         1 UNK         0.0000 
     38 H38         1.8182   -2.2639   -3.6839 H         1 UNK         0.0000 
     39 H39         2.5705   -1.6491   -2.2166 H         1 UNK         0.0000 
     40 H40        -0.4520   -1.1443   -3.4517 H         1 UNK         0.0000 
     41 H41        -0.3141    0.7947   -4.5108 H         1 UNK         0.0000 
     42 H42         1.3443    0.3732   -4.1352 H         1 UNK         0.0000 
     43 H43         1.1363    1.9125   -2.1169 H         1 UNK         0.0000 
     44 H44         1.0616    2.7137   -3.6597 H         1 UNK         0.0000 
     45 H45        -1.5082    1.9587   -2.1804 H         1 UNK         0.0000 
     46 H46        -1.3092    3.0279   -3.5376 H         1 UNK         0.0000 
     47 H47         0.5368    3.6005   -1.6680 H         1 UNK         0.0000 
     48 H48        -1.4934    4.6126   -0.2089 H         1 UNK         0.0000 
     49 H49         0.3150    6.7847    2.6608 H         1 UNK         0.0000 
     50 H50         0.1405    4.7171    4.0254 H         1 UNK         0.0000 
     51 H51         0.2158    6.4811    0.2121 H         1 UNK         0.0000 
@<TRIPOS>BOND
     1    1    6 nc   
     2    1    8 nc   
     3    1   18 nc   
     4    1   25 nc   
     5    1   28 nc   
     6    1   30 nc   
     7    2    3 ar   
     8    2    9 ar   
     9    2   34 1    
    10    3    4 ar   
    11    3   35 1    
    12    4   36 1    
    13    4    5 ar   
    14    5    6 1    
    15    5    7 ar   
    16    7    8 1    
    17    7    9 ar   
    18    9   10 1    
    19   10   11 1    
    20   10   15 2    
    21   11   12 1    
    22   12   13 1    
    23   12   16 1    
    24   12   14 1    
    25   14   39 1    
    26   14   37 1    
    27   14   38 1    
    28   15   16 1    
    29   16   17 2    
    30   17   18 1    
    31   17   19 1    
    32   19   20 1    
    33   19   40 1    
    34   20   21 1    
    35   20   41 1    
    36   20   42 1    
    37   21   22 1    
    38   21   43 1    
    39   21   44 1    
    40   22   45 1    
    41   22   23 1    
    42   22   46 1    
    43   23   24 1    
    44   23   47 1    
    45   24   25 1    
    46   24   26 1    
    47   24   48 1    
    48   26   33 ar   
    49   26   27 ar   
    50   27   28 1    
    51   27   29 ar   
    52   29   30 1    
    53   29   31 ar   
    54   31   32 ar   
    55   31   50 1    
    56   32   33 ar   
    57   32   49 1    
    58   33   51 1    
@<TRIPOS>SUBSTRUCTURE
     1 UNK         1 GROUP             0       ****    0 ROOT    
@<TRIPOS>MOLECULE
236_c2
105   114    1
SMALL
USER_CHARGES


@<TRIPOS>ATOM
      1 Fe1         0.0038    0.1065    0.1062 Fe        1 UNK         0.0000 
      2 C2          3.0467    0.7986   -3.1360 C.ar      1 UNK         0.0000 
      3 C3          2.5611    2.1164   -3.2074 C.ar      1 UNK         0.0000 
      4 C4          1.8412    2.6457   -2.1351 C.ar      1 UNK         0.0000 
      5 C5          1.6626    1.9017   -0.9700 C.ar      1 UNK         0.0000 
      6 O6          0.6623    2.1915   -0.2093 O.co2     1 UNK         0.0000 
      7 C7          2.3391    0.6820   -0.8245 C.ar      1 UNK         0.0000 
      8 O8          2.1732    0.0108    0.2467 O.co2     1 UNK         0.0000 
      9 C9          2.9182    0.0542   -1.9496 C.ar      1 UNK         0.0000 
     10 C10         2.8760   -1.4317   -1.9427 C.2       1 UNK         0.0000 
     11 O11         3.7775   -2.1380   -1.2019 O.3       1 UNK         0.0000 
     12 C12         3.1021   -3.2323   -0.6205 C.3       1 UNK         0.0000 
     13 H13         2.9928   -3.0133    0.4414 H         1 UNK         0.0000 
     14 C14         3.9256   -4.5187   -0.8193 C.3       1 UNK         0.0000 
     15 N15         1.8161   -2.0854   -2.2489 N.2       1 UNK         0.0000 
     16 C16         1.7603   -3.2280   -1.3702 C.3       1 UNK         0.0000 
     17 H17         1.6300   -4.1170   -1.9843 H         1 UNK         0.0000 
     18 C18         0.5226   -3.1348   -0.3857 C.2       1 UNK         0.0000 
     19 O19         0.1074   -2.0797    0.1459 O.co2     1 UNK         0.0000 
     20 N20        -0.1875   -4.2417   -0.0686 N.am      1 UNK         0.0000 
     21 C21        -0.2153   -5.5515   -0.7089 C.3       1 UNK         0.0000 
     22 C22        -1.3644   -6.4821   -0.1992 C.3       1 UNK         0.0000 
     23 C23        -1.3246   -6.7698    1.3240 C.3       1 UNK         0.0000 
     24 N24        -2.4053   -7.5965    1.8989 N.am      1 UNK         0.0000 
     25 C25        -2.5068   -7.7954    3.2399 C.2       1 UNK         0.0000 
     26 O26        -1.6589   -7.3088    3.9825 O.2       1 UNK         0.0000 
     27 C27        -3.6546   -8.6273    3.8050 C.ar      1 UNK         0.0000 
     28 C28        -4.0250   -8.5608    5.1736 C.ar      1 UNK         0.0000 
     29 O29        -3.4496   -7.7097    6.0796 O.3       1 UNK         0.0000 
     30 C30        -5.0453   -9.3762    5.6958 C.ar      1 UNK         0.0000 
     31 O31        -5.3910   -9.3026    7.0269 O.3       1 UNK         0.0000 
     32 C32        -5.7223  -10.2659    4.8697 C.ar      1 UNK         0.0000 
     33 C33        -5.3853  -10.3389    3.5207 C.ar      1 UNK         0.0000 
     34 C34        -4.3693   -9.5361    2.9973 C.ar      1 UNK         0.0000 
     35 H35         3.4254    0.3131   -4.0228 H         1 UNK         0.0000 
     36 H36         2.6454    2.6945   -4.1204 H         1 UNK         0.0000 
     37 H37         1.3140    3.5764   -2.2391 H         1 UNK         0.0000 
     38 H38         4.8864   -4.4796   -0.2916 H         1 UNK         0.0000 
     39 H39         4.1416   -4.7264   -1.8721 H         1 UNK         0.0000 
     40 H40         3.3676   -5.3798   -0.4342 H         1 UNK         0.0000 
     41 H41        -0.9357   -4.0450    0.5892 H         1 UNK         0.0000 
     42 H42        -0.3059   -5.4318   -1.7966 H         1 UNK         0.0000 
     43 H43         0.7545   -6.0050   -0.4932 H         1 UNK         0.0000 
     44 H44        -1.2814   -7.4245   -0.7426 H         1 UNK         0.0000 
     45 H45        -2.3298   -6.0584   -0.4867 H         1 UNK         0.0000 
     46 H46        -0.3627   -7.2314    1.5531 H         1 UNK         0.0000 
     47 H47        -1.2960   -5.8166    1.8557 H         1 UNK         0.0000 
     48 H48        -2.9975   -8.1169    1.2771 H         1 UNK         0.0000 
     49 H49        -3.8911   -7.8444    6.9270 H         1 UNK         0.0000 
     50 H50        -6.0804   -9.9198    7.2969 H         1 UNK         0.0000 
     51 H51        -6.5114  -10.8883    5.2746 H         1 UNK         0.0000 
     52 H52        -5.9241  -11.0305    2.8853 H         1 UNK         0.0000 
     53 H53        -4.1432   -9.6396    1.9513 H         1 UNK         0.0000 
     54 C54        -3.0394   -3.1422    0.7912 C.ar      1 UNK         0.0000 
     55 C55        -2.5572   -3.2121    2.1107 C.ar      1 UNK         0.0000 
     56 C56        -1.8386   -2.1401    2.6414 C.ar      1 UNK         0.0000 
     57 C57        -1.6550   -0.9739    1.8985 C.ar      1 UNK         0.0000 
     58 O58        -0.6590   -0.2101    2.1903 O.co2     1 UNK         0.0000 
     59 C59        -2.3325   -0.8302    0.6767 C.ar      1 UNK         0.0000 
     60 O60        -2.1658    0.2409    0.0069 O.co2     1 UNK         0.0000 
     61 C61        -2.9087   -1.9544    0.0485 C.ar      1 UNK         0.0000 
     62 C62        -2.8632   -1.9472   -1.4376 C.2       1 UNK         0.0000 
     63 O63        -3.7664   -1.2087   -2.1453 O.3       1 UNK         0.0000 
     64 C64        -3.0905   -0.6257   -3.2387 C.3       1 UNK         0.0000 
     65 H65        -2.9843    0.4361   -3.0194 H         1 UNK         0.0000 
     66 C66        -3.9126   -0.8270   -4.5263 C.3       1 UNK         0.0000 
     67 N67        -1.8021   -2.2516   -2.0901 N.2       1 UNK         0.0000 
     68 C68        -1.7471   -1.3726   -3.2329 C.3       1 UNK         0.0000 
     69 H69        -1.6144   -1.9864   -4.1217 H         1 UNK         0.0000 
     70 C70        -0.5103   -0.3863   -3.1364 C.2       1 UNK         0.0000 
     71 O71        -0.0980    0.1454   -2.0804 O.co2     1 UNK         0.0000 
     72 N72         0.2036   -0.0702   -4.2415 N.am      1 UNK         0.0000 
     73 C73         0.2354   -0.7117   -5.5511 C.3       1 UNK         0.0000 
     74 C74         1.3894   -0.2059   -6.4782 C.3       1 UNK         0.0000 
     75 C75         1.3578    1.3168   -6.7633 C.3       1 UNK         0.0000 
     76 N76         2.4407    1.8912   -7.5883 N.am      1 UNK         0.0000 
     77 C77         2.5493    3.2322   -7.7747 C.2       1 UNK         0.0000 
     78 O78         1.7116    3.9743   -7.2680 O.2       1 UNK         0.0000 
     79 C79         3.6886    3.8027   -8.6167 C.ar      1 UNK         0.0000 
     80 C80         4.0389    5.1790   -8.5687 C.ar      1 UNK         0.0000 
     81 O81         3.4485    6.0901   -7.7365 O.3       1 UNK         0.0000 
     82 C82         5.0524    5.7028   -9.3929 C.ar      1 UNK         0.0000 
     83 O83         5.3756    7.0419   -9.3373 O.3       1 UNK         0.0000 
     84 C84         5.7392    4.8765  -10.2701 C.ar      1 UNK         0.0000 
     85 C85         5.4219    3.5209  -10.3265 C.ar      1 UNK         0.0000 
     86 C86         4.4135    2.9946   -9.5149 C.ar      1 UNK         0.0000 
     87 H87        -3.4190   -4.0273    0.3061 H         1 UNK         0.0000 
     88 H88        -2.6449   -4.1251    2.6881 H         1 UNK         0.0000 
     89 H89        -1.3159   -2.2430    3.5748 H         1 UNK         0.0000 
     90 H90        -4.8799   -0.3121   -4.4823 H         1 UNK         0.0000 
     91 H91        -4.1157   -1.8805   -4.7407 H         1 UNK         0.0000 
     92 H92        -3.3608   -0.4300   -5.3860 H         1 UNK         0.0000 
     93 H93         0.9515    0.5860   -4.0413 H         1 UNK         0.0000 
     94 H94         0.3237   -1.7999   -5.4304 H         1 UNK         0.0000 
     95 H95        -0.7313   -0.4954   -6.0090 H         1 UNK         0.0000 
     96 H96         1.3066   -0.7469   -7.4222 H         1 UNK         0.0000 
     97 H97         2.3529   -0.4985   -6.0530 H         1 UNK         0.0000 
     98 H98         0.3971    1.5521   -7.2253 H         1 UNK         0.0000 
     99 H99         1.3299    1.8461   -5.8089 H         1 UNK         0.0000 
    100 H100        3.0294    1.2676   -8.1120 H         1 UNK         0.0000 
    101 H101        3.8710    6.9443   -7.8942 H         1 UNK         0.0000 
    102 H102        6.0654    7.3129   -9.9537 H         1 UNK         0.0000 
    103 H103        6.5213    5.2834  -10.9008 H         1 UNK         0.0000 
    104 H104        5.9673    2.8852  -11.0112 H         1 UNK         0.0000 
    105 H105        4.2020    1.9441   -9.6075 H         1 UNK         0.0000 
@<TRIPOS>BOND
     1    1    6 nc   
     2    1    8 nc   
     3    1   19 nc   
     4    1   58 nc   
     5    1   60 nc   
     6    1   71 nc   
     7    2    9 ar   
     8    2    3 ar   
     9    2   35 1    
    10    3    4 ar   
    11    3   36 1    
    12    4    5 ar   
    13    4   37 1    
    14    5    7 ar   
    15    5    6 1    
    16    7    8 1    
    17    7    9 ar   
    18    9   10 1    
    19   10   11 1    
    20   10   15 2    
    21   11   12 1    
    22   12   13 1    
    23   12   14 1    
    24   12   16 1    
    25   14   40 1    
    26   14   38 1    
    27   14   39 1    
    28   15   16 1    
    29   16   17 1    
    30   16   18 1    
    31   18   20 am   BACKBONE|DICT|INTERRES
    32   18   19 2    
    33   20   41 1    
    34   20   21 1    
    35   21   43 1    
    36   21   22 1    
    37   21   42 1    
    38   22   23 1    
    39   22   44 1    
    40   22   45 1    
    41   23   46 1    
    42   23   47 1    
    43   23   24 1    
    44   24   25 am   BACKBONE|DICT|INTERRES
    45   24   48 1    
    46   25   27 1    
    47   25   26 2    
    48   27   28 ar   
    49   27   34 ar   
    50   28   30 ar   
    51   28   29 1    
    52   29   49 1    
    53   30   31 1    
    54   30   32 ar   
    55   31   50 1    
    56   32   51 1    
    57   32   33 ar   
    58   33   34 ar   
    59   33   52 1    
    60   34   53 1    
    61   54   55 ar   
    62   54   61 ar   
    63   54   87 1    
    64   55   56 ar   
    65   55   88 1    
    66   56   89 1    
    67   56   57 ar   
    68   57   58 1    
    69   57   59 ar   
    70   59   60 1    
    71   59   61 ar   
    72   61   62 1    
    73   62   63 1    
    74   62   67 2    
    75   63   64 1    
    76   64   68 1    
    77   64   65 1    
    78   64   66 1    
    79   66   90 1    
    80   66   91 1    
    81   66   92 1    
    82   67   68 1    
    83   68   69 1    
    84   68   70 1    
    85   70   71 2    
    86   70   72 am   BACKBONE|DICT|INTERRES
    87   72   93 1    
    88   72   73 1    
    89   73   94 1    
    90   73   74 1    
    91   73   95 1    
    92   74   97 1    
    93   74   75 1    
    94   74   96 1    
    95   75   99 1    
    96   75   76 1    
    97   75   98 1    
    98   76   77 am   BACKBONE|DICT|INTERRES
    99   76  100 1    
   100   77   78 2    
   101   77   79 1    
   102   79   80 ar   
   103   79   86 ar   
   104   80   81 1    
   105   80   82 ar   
   106   81  101 1    
   107   82   83 1    
   108   82   84 ar   
   109   83  102 1    
   110   84   85 ar   
   111   84  103 1    
   112   85   86 ar   
   113   85  104 1    
   114   86  105 1    
@<TRIPOS>SUBSTRUCTURE
     1 UNK         1 GROUP             0       ****    0 ROOT    
@<TRIPOS>MOLECULE
237_c1
109   116    1
SMALL
USER_CHARGES


@<TRIPOS>ATOM
      1 Fe1        -0.0001    0.1151   -0.1120 Fe        1 UNK         0.0000 
      2 C2          2.6002    0.6287   -3.7109 C.ar      1 UNK         0.0000 
      3 C3          2.1504    1.9476   -3.7071 C.ar      1 UNK         0.0000 
      4 C4          1.7196    2.5230   -2.5195 C.ar      1 UNK         0.0000 
      5 C5          1.7687    1.8043   -1.3263 C.ar      1 UNK         0.0000 
      6 O6          1.1956    2.3636   -0.3338 O.co2     1 UNK         0.0000 
      7 C7          2.3158    0.4956   -1.2968 C.ar      1 UNK         0.0000 
      8 O8          2.4182   -0.1666   -0.2001 O.co2     1 UNK         0.0000 
      9 C9          2.6562   -0.1289   -2.5263 C.ar      1 UNK         0.0000 
     10 C10         2.8580   -1.6315   -2.6685 C.2       1 UNK         0.0000 
     11 O11         3.4965   -2.1509   -3.5966 O.2       1 UNK         0.0000 
     12 N12         2.1010   -2.3101   -1.7988 N.am      1 UNK         0.0000 
     13 C13         1.3676   -3.5806   -1.7994 C.3       1 UNK         0.0000 
     14 H14         1.9084   -4.2416   -1.1241 H         1 UNK         0.0000 
     15 C15        -0.0399   -3.3103   -1.1157 C.3       1 UNK         0.0000 
     16 H16        -0.4381   -4.2885   -0.8210 H         1 UNK         0.0000 
     17 O17         0.0070   -2.4474   -0.0134 O.co2     1 UNK         0.0000 
     18 C18        -1.1077   -2.7690   -2.0979 C.3       1 UNK         0.0000 
     19 C19         1.2338   -4.2994   -3.1713 C.2       1 UNK         0.0000 
     20 O20         1.1791   -3.6928   -4.2453 O.2       1 UNK         0.0000 
     21 N21         1.0536   -5.6249   -3.1246 N.am      1 UNK         0.0000 
     22 C22         0.5998   -6.3127   -4.3189 C.3       1 UNK         0.0000 
     23 C23         0.2283   -7.7705   -4.0897 C.3       1 UNK         0.0000 
     24 C24        -0.3514   -8.3325   -5.3954 C.3       1 UNK         0.0000 
     25 N25        -0.6358   -9.7534   -5.3117 N.am      1 UNK         0.0000 
     26 C26        -0.0225  -10.7121   -6.0098 C.2       1 UNK         0.0000 
     27 O27         0.8873  -10.4610   -6.8003 O.2       1 UNK         0.0000 
     28 C28        -0.5173  -12.1326   -5.8168 C.ar      1 UNK         0.0000 
     29 C29        -1.4179  -12.5181   -4.7945 C.ar      1 UNK         0.0000 
     30 O30        -1.9475  -11.6407   -3.8756 O.3       1 UNK         0.0000 
     31 C31        -1.8132  -13.8599   -4.6753 C.ar      1 UNK         0.0000 
     32 O32        -2.6768  -14.2400   -3.6752 O.3       1 UNK         0.0000 
     33 C33        -1.3334  -14.8191   -5.5629 C.ar      1 UNK         0.0000 
     34 C34        -0.4584  -14.4494   -6.5796 C.ar      1 UNK         0.0000 
     35 C35        -0.0567  -13.1210   -6.7025 C.ar      1 UNK         0.0000 
     36 H36         2.8460    0.1601   -4.6602 H         1 UNK         0.0000 
     37 H37         2.0837    2.4998   -4.6302 H         1 UNK         0.0000 
     38 H38         1.2833    3.5077   -2.5294 H         1 UNK         0.0000 
     39 H39         2.0213   -1.7916   -0.9139 H         1 UNK         0.0000 
     40 H40        -0.6636   -2.0793   -2.8091 H         1 UNK         0.0000 
     41 H41        -1.9240   -2.2333   -1.5948 H         1 UNK         0.0000 
     42 H42        -1.5681   -3.5619   -2.6879 H         1 UNK         0.0000 
     43 H43         0.9768   -6.0468   -2.2163 H         1 UNK         0.0000 
     44 H44        -0.2785   -5.7941   -4.7120 H         1 UNK         0.0000 
     45 H45         1.3549   -6.2344   -5.0998 H         1 UNK         0.0000 
     46 H46         1.1111   -8.3397   -3.7871 H         1 UNK         0.0000 
     47 H47        -0.5061   -7.8584   -3.2847 H         1 UNK         0.0000 
     48 H48        -1.2603   -7.7931   -5.6646 H         1 UNK         0.0000 
     49 H49         0.3429   -8.1027   -6.2087 H         1 UNK         0.0000 
     50 H50        -1.3431  -10.0716   -4.6558 H         1 UNK         0.0000 
     51 H51        -2.4989  -12.1711   -3.2841 H         1 UNK         0.0000 
     52 H52        -2.8616  -15.1830   -3.6850 H         1 UNK         0.0000 
     53 H53        -1.6336  -15.8516   -5.4725 H         1 UNK         0.0000 
     54 H54        -0.0848  -15.1886   -7.2737 H         1 UNK         0.0000 
     55 H55         0.6269  -12.8611   -7.5015 H         1 UNK         0.0000 
     56 C56        -2.6014    3.7136   -0.6351 C.ar      1 UNK         0.0000 
     57 C57        -2.1554    3.7044   -1.9549 C.ar      1 UNK         0.0000 
     58 C58        -1.7257    2.5148   -2.5270 C.ar      1 UNK         0.0000 
     59 C59        -1.7733    1.3243   -1.8030 C.ar      1 UNK         0.0000 
     60 O60        -1.2000    0.3300   -2.3590 O.co2     1 UNK         0.0000 
     61 C61        -2.3177    1.2999   -0.4935 C.ar      1 UNK         0.0000 
     62 O62        -2.4185    0.2054    0.1737 O.co2     1 UNK         0.0000 
     63 C63        -2.6547    2.5318    0.1277 C.ar      1 UNK         0.0000 
     64 C64        -2.8448    2.6815    1.6306 C.2       1 UNK         0.0000 
     65 O65        -3.4781    3.6116    2.1519 O.2       1 UNK         0.0000 
     66 N66        -2.0811    1.8145    2.3058 N.am      1 UNK         0.0000 
     67 C67        -1.3577    1.8044    3.5815 C.3       1 UNK         0.0000 
     68 H68        -1.9053    1.1290    4.2364 H         1 UNK         0.0000 
     69 C69         0.0478    1.1171    3.3132 C.3       1 UNK         0.0000 
     70 H70         0.4463    0.8237    4.2918 H         1 UNK         0.0000 
     71 O71        -0.0022    0.0140    2.4515 O.co2     1 UNK         0.0000 
     72 C72         1.1156    2.0971    2.7675 C.3       1 UNK         0.0000 
     73 C73        -1.2213    3.1737    4.3051 C.2       1 UNK         0.0000 
     74 O74        -1.1602    4.2491    3.7016 O.2       1 UNK         0.0000 
     75 N75        -1.0480    3.1232    5.6315 N.am      1 UNK         0.0000 
     76 C76        -0.5953    4.3152    6.3245 C.3       1 UNK         0.0000 
     77 C77        -0.2265    4.0817    7.7828 C.3       1 UNK         0.0000 
     78 C78         0.3557    5.3844    8.3483 C.3       1 UNK         0.0000 
     79 N79         0.6378    5.2984    9.7695 N.am      1 UNK         0.0000 
     80 C80         0.0284    6.0007   10.7277 C.2       1 UNK         0.0000 
     81 O81        -0.8785    6.7944   10.4761 O.2       1 UNK         0.0000 
     82 C82         0.5246    5.8091   12.1482 C.ar      1 UNK         0.0000 
     83 C83         1.4267    4.7883   12.5336 C.ar      1 UNK         0.0000 
     84 O84         1.9552    3.8682   11.6567 O.3       1 UNK         0.0000 
     85 C85         1.8253    4.6719   13.8747 C.ar      1 UNK         0.0000 
     86 O86         2.6914    3.6739   14.2545 O.3       1 UNK         0.0000 
     87 C87         1.3465    5.5606   14.8334 C.ar      1 UNK         0.0000 
     88 C88         0.4692    6.5753   14.4640 C.ar      1 UNK         0.0000 
     89 C89         0.0647    6.6958   13.1361 C.ar      1 UNK         0.0000 
     90 H90        -2.8446    4.6650   -0.1689 H         1 UNK         0.0000 
     91 H91        -2.0892    4.6257   -2.5107 H         1 UNK         0.0000 
     92 H92        -1.2911    2.5210   -3.5121 H         1 UNK         0.0000 
     93 H93        -2.0095    0.9278    1.7893 H         1 UNK         0.0000 
     94 H94         0.6702    2.8083    2.0792 H         1 UNK         0.0000 
     95 H95         1.9291    1.5925    2.2291 H         1 UNK         0.0000 
     96 H96         1.5796    2.6872    3.5584 H         1 UNK         0.0000 
     97 H97        -0.9783    2.2140    6.0526 H         1 UNK         0.0000 
     98 H98         0.2841    4.7096    5.8096 H         1 UNK         0.0000 
     99 H99        -1.3499    5.0967    6.2473 H         1 UNK         0.0000 
    100 H100       -1.1110    3.7801    8.3499 H         1 UNK         0.0000 
    101 H101        0.5057    3.2744    7.8697 H         1 UNK         0.0000 
    102 H102        1.2668    5.6521    7.8109 H         1 UNK         0.0000 
    103 H103       -0.3354    6.2004    8.1184 H         1 UNK         0.0000 
    104 H104        1.3440    4.6414   10.0879 H         1 UNK         0.0000 
    105 H105        2.5074    3.2776   12.1872 H         1 UNK         0.0000 
    106 H106        2.8808    3.6875   15.1966 H         1 UNK         0.0000 
    107 H107        1.6493    5.4724   15.8654 H         1 UNK         0.0000 
    108 H108        0.0963    7.2702   15.2029 H         1 UNK         0.0000 
    109 H109       -0.6200    7.4938   12.8764 H         1 UNK         0.0000 
@<TRIPOS>BOND
     1    1    6 nc   
     2    1    8 nc   
     3    1   17 nc   
     4    1   60 nc   
     5    1   62 nc   
     6    1   71 nc   
     7    2    3 ar   
     8    2    9 ar   
     9    2   36 1    
    10    3    4 ar   
    11    3   37 1    
    12    4    5 ar   
    13    4   38 1    
    14    5    7 ar   
    15    5    6 1    
    16    7    8 1    
    17    7    9 ar   
    18    9   10 1    
    19   10   12 am   BACKBONE|DICT|INTERRES
    20   10   11 2    
    21   12   39 1    
    22   12   13 1    
    23   13   15 1    
    24   13   14 1    
    25   13   19 1    
    26   15   16 1    
    27   15   17 1    
    28   15   18 1    
    29   18   41 1    
    30   18   40 1    
    31   18   42 1    
    32   19   20 2    
    33   19   21 am   BACKBONE|DICT|INTERRES
    34   21   43 1    
    35   21   22 1    
    36   22   23 1    
    37   22   44 1    
    38   22   45 1    
    39   23   46 1    
    40   23   47 1    
    41   23   24 1    
    42   24   25 1    
    43   24   48 1    
    44   24   49 1    
    45   25   50 1    
    46   25   26 am   BACKBONE|DICT|INTERRES
    47   26   28 1    
    48   26   27 2    
    49   28   29 ar   
    50   28   35 ar   
    51   29   31 ar   
    52   29   30 1    
    53   30   51 1    
    54   31   32 1    
    55   31   33 ar   
    56   32   52 1    
    57   33   53 1    
    58   33   34 ar   
    59   34   35 ar   
    60   34   54 1    
    61   35   55 1    
    62   56   90 1    
    63   56   63 ar   
    64   56   57 ar   
    65   57   58 ar   
    66   57   91 1    
    67   58   59 ar   
    68   58   92 1    
    69   59   61 ar   
    70   59   60 1    
    71   61   62 1    
    72   61   63 ar   
    73   63   64 1    
    74   64   65 2    
    75   64   66 am   BACKBONE|DICT|INTERRES
    76   66   67 1    
    77   66   93 1    
    78   67   73 1    
    79   67   68 1    
    80   67   69 1    
    81   69   70 1    
    82   69   71 1    
    83   69   72 1    
    84   72   96 1    
    85   72   94 1    
    86   72   95 1    
    87   73   75 am   BACKBONE|DICT|INTERRES
    88   73   74 2    
    89   75   97 1    
    90   75   76 1    
    91   76   77 1    
    92   76   98 1    
    93   76   99 1    
    94   77  101 1    
    95   77  100 1    
    96   77   78 1    
    97   78   79 1    
    98   78  102 1    
    99   78  103 1    
   100   79  104 1    
   101   79   80 am   BACKBONE|DICT|INTERRES
   102   80   82 1    
   103   80   81 2    
   104   82   83 ar   
   105   82   89 ar   
   106   83   85 ar   
   107   83   84 1    
   108   84  105 1    
   109   85   86 1    
   110   85   87 ar   
   111   86  106 1    
   112   87  107 1    
   113   87   88 ar   
   114   88  108 1    
   115   88   89 ar   
   116   89  109 1    
@<TRIPOS>SUBSTRUCTURE
     1 UNK         1 GROUP             0       ****    0 ROOT    
@<TRIPOS>MOLECULE
238_c1
111   118    1
SMALL
USER_CHARGES


@<TRIPOS>ATOM
      1 Fe1         0.0027    0.0362   -0.0199 Fe        1 UNK         0.0000 
      2 C2          3.3862   -1.7486   -2.9503 C.ar      1 UNK         0.0000 
      3 C3          2.6006   -2.8891   -2.8356 C.ar      1 UNK         0.0000 
      4 C4          1.6468   -2.9886   -1.8310 C.ar      1 UNK         0.0000 
      5 C5          1.4734   -1.9599   -0.9102 C.ar      1 UNK         0.0000 
      6 O6          0.5516   -2.1285   -0.0382 O.co2     1 UNK         0.0000 
      7 C7          2.3033   -0.8113   -1.0007 C.ar      1 UNK         0.0000 
      8 O8          2.1654    0.1163   -0.1514 O.co2     1 UNK         0.0000 
      9 C9          3.2518   -0.6731   -2.0476 C.ar      1 UNK         0.0000 
     10 C10         4.1030    0.5717   -2.3308 C.2       1 UNK         0.0000 
     11 O11         4.7990    0.6762   -3.3430 O.2       1 UNK         0.0000 
     12 O12         3.9681    1.6298   -1.4647 O.3       1 UNK         0.0000 
     13 C13         3.3631    2.8863   -1.8177 C.3       1 UNK         0.0000 
     14 H14         3.4877    3.5150   -0.9446 H         1 UNK         0.0000 
     15 C15         4.1459    3.5793   -2.9841 C.3       1 UNK         0.0000 
     16 C16         1.8127    2.7248   -2.0741 C.3       1 UNK         0.0000 
     17 H17         1.6677    1.6578   -2.2101 H         1 UNK         0.0000 
     18 N18         1.3555    3.3247   -3.3581 N.3       1 UNK         0.0000 
     19 C19         0.8283    3.1082   -0.8935 C.2       1 UNK         0.0000 
     20 O20         0.2218    2.2266   -0.2363 O.co2     1 UNK         0.0000 
     21 N21         0.4324    4.3924   -0.7405 N.am      1 UNK         0.0000 
     22 C22        -0.7461    4.6991    0.1059 C.3       1 UNK         0.0000 
     23 C23        -0.8716    6.1290    0.6632 C.3       1 UNK         0.0000 
     24 C24        -2.1648    6.2970    1.5044 C.3       1 UNK         0.0000 
     25 N25        -2.3143    7.6114    2.1479 N.am      1 UNK         0.0000 
     26 C26        -3.3088    8.4880    1.9530 C.2       1 UNK         0.0000 
     27 O27        -4.1777    8.2861    1.0995 O.2       1 UNK         0.0000 
     28 C28        -3.3127    9.7518    2.7987 C.ar      1 UNK         0.0000 
     29 C29        -2.4535    9.9747    3.9044 C.ar      1 UNK         0.0000 
     30 O30        -1.5256    9.0603    4.3466 O.3       1 UNK         0.0000 
     31 C31        -2.5184   11.1777    4.6195 C.ar      1 UNK         0.0000 
     32 O32        -1.6912   11.3907    5.6964 O.3       1 UNK         0.0000 
     33 C33        -3.4192   12.1710    4.2535 C.ar      1 UNK         0.0000 
     34 C34        -4.2700   11.9658    3.1770 C.ar      1 UNK         0.0000 
     35 C35        -4.2203   10.7715    2.4611 C.ar      1 UNK         0.0000 
     36 H36         4.1028   -1.6924   -3.7612 H         1 UNK         0.0000 
     37 H37         2.7134   -3.6928   -3.5454 H         1 UNK         0.0000 
     38 H38         1.0327   -3.8720   -1.7538 H         1 UNK         0.0000 
     39 H39         3.7435    4.5723   -3.1957 H         1 UNK         0.0000 
     40 H40         5.2115    3.6914   -2.7641 H         1 UNK         0.0000 
     41 H41         4.0622    3.0045   -3.9145 H         1 UNK         0.0000 
     42 H42         0.5015    2.8685   -3.6790 H         1 UNK         0.0000 
     43 H43         2.0252    3.0807   -4.0827 H         1 UNK         0.0000 
     44 H44         0.8291    5.1116   -1.3355 H         1 UNK         0.0000 
     45 H45        -1.6439    4.4506   -0.4596 H         1 UNK         0.0000 
     46 H46        -0.7723    4.0202    0.9639 H         1 UNK         0.0000 
     47 H47        -0.8838    6.8452   -0.1568 H         1 UNK         0.0000 
     48 H48        -0.0133    6.3578    1.2954 H         1 UNK         0.0000 
     49 H49        -2.2052    5.5411    2.2914 H         1 UNK         0.0000 
     50 H50        -3.0354    6.0524    0.8826 H         1 UNK         0.0000 
     51 H51        -1.7601    7.8409    2.9704 H         1 UNK         0.0000 
     52 H52        -1.1493    9.4342    5.1555 H         1 UNK         0.0000 
     53 H53        -1.8208   12.2530    6.0977 H         1 UNK         0.0000 
     54 H54        -3.4652   13.1007    4.8003 H         1 UNK         0.0000 
     55 H55        -4.9719   12.7320    2.8908 H         1 UNK         0.0000 
     56 H56        -4.8981   10.6457    1.6278 H         1 UNK         0.0000 
     57 C57        -3.3928    2.9411    1.7810 C.ar      1 UNK         0.0000 
     58 C58        -2.5996    2.8345    2.9169 C.ar      1 UNK         0.0000 
     59 C59        -1.6367    1.8382    3.0119 C.ar      1 UNK         0.0000 
     60 C60        -1.4624    0.9172    1.9839 C.ar      1 UNK         0.0000 
     61 O61        -0.5329    0.0527    2.1473 O.co2     1 UNK         0.0000 
     62 C62        -2.2987    1.0000    0.8396 C.ar      1 UNK         0.0000 
     63 O63        -2.1602    0.1514   -0.0886 O.co2     1 UNK         0.0000 
     64 C64        -3.2565    2.0387    0.7064 C.ar      1 UNK         0.0000 
     65 C65        -4.1195    2.3111   -0.5313 C.2       1 UNK         0.0000 
     66 O66        -4.8378    3.3089   -0.6256 O.2       1 UNK         0.0000 
     67 O67        -3.9725    1.4529   -1.5935 O.3       1 UNK         0.0000 
     68 C68        -3.3944    1.8247   -2.8560 C.3       1 UNK         0.0000 
     69 H69        -3.5330    0.9619   -3.4960 H         1 UNK         0.0000 
     70 C70        -4.1891    3.0038   -3.5138 C.3       1 UNK         0.0000 
     71 C71        -1.8401    2.0755   -2.7236 C.3       1 UNK         0.0000 
     72 H72        -1.6775    2.2423   -1.6620 H         1 UNK         0.0000 
     73 N73        -1.3905    3.3289   -3.3909 N.3       1 UNK         0.0000 
     74 C74        -0.8661    0.8809   -3.0884 C.2       1 UNK         0.0000 
     75 O75        -0.2289    0.2521   -2.2115 O.co2     1 UNK         0.0000 
     76 N76        -0.4983    0.6966   -4.3804 N.am      1 UNK         0.0000 
     77 C77         0.6782   -0.1515   -4.6809 C.3       1 UNK         0.0000 
     78 C78         0.8466   -0.6511   -6.1274 C.3       1 UNK         0.0000 
     79 C79         2.1501   -1.4754   -6.2892 C.3       1 UNK         0.0000 
     80 N80         2.3103   -2.1189   -7.6021 N.am      1 UNK         0.0000 
     81 C81         3.3256   -1.9404   -8.4589 C.2       1 UNK         0.0000 
     82 O82         4.2067   -1.1035   -8.2395 O.2       1 UNK         0.0000 
     83 C83         3.3351   -2.7810   -9.7262 C.ar      1 UNK         0.0000 
     84 C84         2.4908   -3.8986   -9.9396 C.ar      1 UNK         0.0000 
     85 O85         1.5828   -4.3549   -9.0138 O.3       1 UNK         0.0000 
     86 C86         2.5554   -4.6105  -11.1468 C.ar      1 UNK         0.0000 
     87 O87         1.7439   -5.7005  -11.3501 O.3       1 UNK         0.0000 
     88 C88         3.4405   -4.2292  -12.1476 C.ar      1 UNK         0.0000 
     89 C89         4.2780   -3.1409  -11.9487 C.ar      1 UNK         0.0000 
     90 C90         4.2278   -2.4281  -10.7513 C.ar      1 UNK         0.0000 
     91 H91        -4.1166    3.7454    1.7276 H         1 UNK         0.0000 
     92 H92        -2.7149    3.5435    3.7205 H         1 UNK         0.0000 
     93 H93        -1.0171    1.7672    3.8918 H         1 UNK         0.0000 
     94 H94        -3.8251    3.2164   -4.5217 H         1 UNK         0.0000 
     95 H95        -5.2606    2.7963   -3.5840 H         1 UNK         0.0000 
     96 H96        -4.0696    3.9294   -2.9375 H         1 UNK         0.0000 
     97 H97        -0.4984    3.6458   -3.0091 H         1 UNK         0.0000 
     98 H98        -2.0262    4.0805   -3.1413 H         1 UNK         0.0000 
     99 H99        -0.9174    1.2629   -5.1085 H         1 UNK         0.0000 
    100 H100        1.5745    0.3946   -4.3858 H         1 UNK         0.0000 
    101 H101        0.6698   -1.0324   -4.0309 H         1 UNK         0.0000 
    102 H102        0.8731    0.1961   -6.8105 H         1 UNK         0.0000 
    103 H103       -0.0005   -1.2772   -6.4064 H         1 UNK         0.0000 
    104 H104        2.1952   -2.2656   -5.5383 H         1 UNK         0.0000 
    105 H105        3.0134   -0.8450   -6.0387 H         1 UNK         0.0000 
    106 H106        1.7559   -2.9411   -7.8301 H         1 UNK         0.0000 
    107 H107        1.2275   -5.1818   -9.3677 H         1 UNK         0.0000 
    108 H108        1.8661   -6.0944  -12.2160 H         1 UNK         0.0000 
    109 H109        3.4861   -4.7733  -13.0792 H         1 UNK         0.0000 
    110 H110        4.9689   -2.8450  -12.7207 H         1 UNK         0.0000 
    111 H111        4.8956   -1.5854  -10.6306 H         1 UNK         0.0000 
@<TRIPOS>BOND
     1    1    6 nc   
     2    1    8 nc   
     3    1   20 nc   
     4    1   61 nc   
     5    1   63 nc   
     6    1   75 nc   
     7    2    3 ar   
     8    2    9 ar   
     9    2   36 1    
    10    3    4 ar   
    11    3   37 1    
    12    4   38 1    
    13    4    5 ar   
    14    5    6 1    
    15    5    7 ar   
    16    7    8 1    
    17    7    9 ar   
    18    9   10 1    
    19   10   12 1    
    20   10   11 2    
    21   12   13 1    
    22   13   14 1    
    23   13   15 1    
    24   13   16 1    
    25   15   40 1    
    26   15   39 1    
    27   15   41 1    
    28   16   17 1    
    29   16   19 1    
    30   16   18 1    
    31   18   42 1    
    32   18   43 1    
    33   19   21 am   BACKBONE|DICT|INTERRES
    34   19   20 2    
    35   21   22 1    
    36   21   44 1    
    37   22   23 1    
    38   22   46 1    
    39   22   45 1    
    40   23   48 1    
    41   23   24 1    
    42   23   47 1    
    43   24   25 1    
    44   24   49 1    
    45   24   50 1    
    46   25   51 1    
    47   25   26 am   BACKBONE|DICT|INTERRES
    48   26   28 1    
    49   26   27 2    
    50   28   29 ar   
    51   28   35 ar   
    52   29   30 1    
    53   29   31 ar   
    54   30   52 1    
    55   31   32 1    
    56   31   33 ar   
    57   32   53 1    
    58   33   54 1    
    59   33   34 ar   
    60   34   35 ar   
    61   34   55 1    
    62   35   56 1    
    63   57   58 ar   
    64   57   64 ar   
    65   57   91 1    
    66   58   59 ar   
    67   58   92 1    
    68   59   93 1    
    69   59   60 ar   
    70   60   61 1    
    71   60   62 ar   
    72   62   63 1    
    73   62   64 ar   
    74   64   65 1    
    75   65   66 2    
    76   65   67 1    
    77   67   68 1    
    78   68   69 1    
    79   68   71 1    
    80   68   70 1    
    81   70   96 1    
    82   70   94 1    
    83   70   95 1    
    84   71   72 1    
    85   71   73 1    
    86   71   74 1    
    87   73   97 1    
    88   73   98 1    
    89   74   75 2    
    90   74   76 am   BACKBONE|DICT|INTERRES
    91   76   77 1    
    92   76   99 1    
    93   77  100 1    
    94   77  101 1    
    95   77   78 1    
    96   78   79 1    
    97   78  102 1    
    98   78  103 1    
    99   79  105 1    
   100   79  104 1    
   101   79   80 1    
   102   80   81 am   BACKBONE|DICT|INTERRES
   103   80  106 1    
   104   81   82 2    
   105   81   83 1    
   106   83   84 ar   
   107   83   90 ar   
   108   84   85 1    
   109   84   86 ar   
   110   85  107 1    
   111   86   87 1    
   112   86   88 ar   
   113   87  108 1    
   114   88   89 ar   
   115   88  109 1    
   116   89   90 ar   
   117   89  110 1    
   118   90  111 1    
@<TRIPOS>SUBSTRUCTURE
     1 UNK         1 GROUP             0       ****    0 ROOT    
@<TRIPOS>MOLECULE
239_A_c1
91   99    1
SMALL
USER_CHARGES


@<TRIPOS>ATOM
      1 Fe1         0.0127    0.0480    0.0077 Fe        1 UNK         0.0000 
      2 O2          0.0333    2.4133    0.1443 O.co2     1 UNK         0.0000 
      3 C3          1.0392    3.3706    0.0884 C.3       1 UNK         0.0000 
      4 C4          1.2115    3.6945    1.5700 C.3       1 UNK         0.0000 
      5 C5          0.3711    4.4356   -0.7828 C.3       1 UNK         0.0000 
      6 C6          1.5738    5.2252   -1.2817 C.3       1 UNK         0.0000 
      7 H7          1.8257    5.9869   -0.5382 H         1 UNK         0.0000 
      8 C8          1.3155    6.0004   -2.6097 C.2       1 UNK         0.0000 
      9 O9          1.1743    5.4591   -3.7021 O.2       1 UNK         0.0000 
     10 N10         1.3635    7.3251   -2.5969 N.am      1 UNK         0.0000 
     11 N11         2.6960    4.2946   -1.4166 N.3       1 UNK         0.0000 
     12 C12         2.3280    3.0136   -0.7686 C.3       1 UNK         0.0000 
     13 C13         3.5813    2.1442   -0.3152 C.ar      1 UNK         0.0000 
     14 N14         4.8458    2.7116   -0.3959 N.ar      1 UNK         0.0000 
     15 C15         5.9523    1.9489   -0.2527 C.ar      1 UNK         0.0000 
     16 C16         5.9120    0.5914    0.0218 C.ar      1 UNK         0.0000 
     17 C17         4.6606   -0.0018    0.1429 C.ar      1 UNK         0.0000 
     18 C18         3.5049    0.7500   -0.0680 C.ar      1 UNK         0.0000 
     19 O19         2.4346    0.0962   -0.1192 O.co2     1 UNK         0.0000 
     20 H20         0.2623    3.9172    2.0598 H         1 UNK         0.0000 
     21 H21         1.8671    4.5394    1.7247 H         1 UNK         0.0000 
     22 H22         1.6422    2.8411    2.0836 H         1 UNK         0.0000 
     23 H23        -0.3590    5.0320   -0.2310 H         1 UNK         0.0000 
     24 H24        -0.1605    4.0091   -1.6411 H         1 UNK         0.0000 
     25 H25         1.3177    7.7781   -3.4944 H         1 UNK         0.0000 
     26 H26         1.6974    7.7791   -1.7670 H         1 UNK         0.0000 
     27 H27         6.9007    2.4440   -0.3947 H         1 UNK         0.0000 
     28 H28         6.7936   -0.0159    0.1089 H         1 UNK         0.0000 
     29 H29         4.5894   -1.0550    0.3391 H         1 UNK         0.0000 
     30 O30         0.0148   -2.3371    0.0099 O.co2     1 UNK         0.0000 
     31 C31        -0.0629   -3.3006    1.0172 C.3       1 UNK         0.0000 
     32 C32         1.3980   -3.6363    1.3190 C.3       1 UNK         0.0000 
     33 C33        -0.8612   -4.4012    0.3117 C.3       1 UNK         0.0000 
     34 C34        -1.4383   -5.1824    1.4872 C.3       1 UNK         0.0000 
     35 H35        -0.7164   -5.9407    1.8057 H         1 UNK         0.0000 
     36 C36        -2.7542   -5.9523    1.1615 C.2       1 UNK         0.0000 
     37 O37        -3.8437   -5.4060    1.0326 O.2       1 UNK         0.0000 
     38 N38        -2.7523   -7.2759    1.1578 N.am      1 UNK         0.0000 
     39 N39        -1.6594   -4.2341    2.5771 N.3       1 UNK         0.0000 
     40 C40        -0.9931   -2.9489    2.2524 C.3       1 UNK         0.0000 
     41 C41        -0.6381   -2.0785    3.5419 C.ar      1 UNK         0.0000 
     42 N42        -0.9832   -2.5972    4.7835 N.ar      1 UNK         0.0000 
     43 C43        -0.9509   -1.8275    5.8930 C.ar      1 UNK         0.0000 
     44 C44        -0.5705   -0.4929    5.8750 C.ar      1 UNK         0.0000 
     45 C45        -0.1859    0.0468    4.6517 C.ar      1 UNK         0.0000 
     46 C46        -0.2123   -0.7206    3.4865 C.ar      1 UNK         0.0000 
     47 O47         0.1001   -0.1159    2.4269 O.co2     1 UNK         0.0000 
     48 H48         1.9577   -3.8777    0.4170 H         1 UNK         0.0000 
     49 H49         1.4917   -4.4742    1.9995 H         1 UNK         0.0000 
     50 H50         1.8840   -2.7854    1.7813 H         1 UNK         0.0000 
     51 H51        -0.2413   -5.0028   -0.3582 H         1 UNK         0.0000 
     52 H52        -1.6819   -4.0060   -0.2966 H         1 UNK         0.0000 
     53 H53        -3.6617   -7.6987    1.0685 H         1 UNK         0.0000 
     54 H54        -1.9623   -7.7444    1.5579 H         1 UNK         0.0000 
     55 H55        -1.2521   -2.2947    6.8120 H         1 UNK         0.0000 
     56 H56        -0.5796    0.1340    6.7518 H         1 UNK         0.0000 
     57 H57         0.0923    1.0860    4.5976 H         1 UNK         0.0000 
     58 O58        -2.3552    0.0379   -0.0008 O.co2     1 UNK         0.0000 
     59 C59        -3.3027   -0.0336   -1.0206 C.3       1 UNK         0.0000 
     60 C60        -3.5517    1.4332   -1.3771 C.3       1 UNK         0.0000 
     61 C61        -4.4505   -0.7654   -0.3165 C.3       1 UNK         0.0000 
     62 C62        -5.2251   -1.3516   -1.4936 C.3       1 UNK         0.0000 
     63 H63        -5.9446   -0.6080   -1.8483 H         1 UNK         0.0000 
     64 C64        -6.0484   -2.6236   -1.1360 C.2       1 UNK         0.0000 
     65 O65        -5.5455   -3.7261   -0.9499 O.2       1 UNK         0.0000 
     66 N66        -7.3697   -2.5689   -1.1565 N.am      1 UNK         0.0000 
     67 N67        -4.2619   -1.6462   -2.5533 N.3       1 UNK         0.0000 
     68 C68        -2.9623   -1.0120   -2.2219 C.3       1 UNK         0.0000 
     69 C69        -2.0570   -0.7407   -3.5121 C.ar      1 UNK         0.0000 
     70 N70        -2.5230   -1.2245   -4.7300 N.ar      1 UNK         0.0000 
     71 C71        -1.7209   -1.2677   -5.8152 C.ar      1 UNK         0.0000 
     72 C72        -0.3929   -0.8666   -5.7883 C.ar      1 UNK         0.0000 
     73 C73         0.0992   -0.3533   -4.5903 C.ar      1 UNK         0.0000 
     74 C74        -0.7175   -0.2611   -3.4568 C.ar      1 UNK         0.0000 
     75 O75        -0.1817    0.2028   -2.4163 O.co2     1 UNK         0.0000 
     76 H76        -3.7790    2.0327   -0.4972 H         1 UNK         0.0000 
     77 H77        -4.3664    1.5519   -2.0866 H         1 UNK         0.0000 
     78 H78        -2.6586    1.8543   -1.8286 H         1 UNK         0.0000 
     79 H79        -5.0357   -0.0958    0.3203 H         1 UNK         0.0000 
     80 H80        -4.1004   -1.5810    0.3246 H         1 UNK         0.0000 
     81 H81        -7.8286   -3.4566   -1.0357 H         1 UNK         0.0000 
     82 H82        -7.7995   -1.7765   -1.5949 H         1 UNK         0.0000 
     83 H83        -2.1697   -1.6369   -6.7186 H         1 UNK         0.0000 
     84 H84         0.2558   -0.9429   -6.6482 H         1 UNK         0.0000 
     85 H85         1.1339   -0.0594   -4.5313 H         1 UNK         0.0000 
     86 H86         2.7677    4.0326   -2.3885 H         1 UNK         0.0000 
     87 H87         1.9266    2.4044   -1.5819 H         1 UNK         0.0000 
     88 H88        -2.6365   -3.9795    2.5605 H         1 UNK         0.0000 
     89 H89        -1.7790   -2.3477    1.7919 H         1 UNK         0.0000 
     90 H90        -4.0296   -2.6276   -2.4985 H         1 UNK         0.0000 
     91 H91        -2.3933   -1.8006   -1.7228 H         1 UNK         0.0000 
@<TRIPOS>BOND
     1    1    2 nc   
     2    1   19 nc   
     3    1   30 nc   
     4    1   47 nc   
     5    1   58 nc   
     6    1   75 nc   
     7    2    3 1    
     8    3    4 1    
     9    3    5 1    
    10    3   12 1    
    11    4   21 1    
    12    4   20 1    
    13    4   22 1    
    14    5   23 1    
    15    5    6 1    
    16    5   24 1    
    17    6    7 1    
    18    6    8 1    
    19    6   11 1    
    20    8    9 2    
    21    8   10 am   BACKBONE|DICT|INTERRES
    22   10   26 1    
    23   10   25 1    
    24   11   12 1    
    25   11   86 1    
    26   12   13 1    
    27   12   87 1    
    28   13   18 ar   
    29   13   14 ar   
    30   14   15 ar   
    31   15   16 ar   
    32   15   27 1    
    33   16   17 ar   
    34   16   28 1    
    35   17   29 1    
    36   17   18 ar   
    37   18   19 1    
    38   30   31 1    
    39   31   32 1    
    40   31   40 1    
    41   31   33 1    
    42   32   50 1    
    43   32   49 1    
    44   32   48 1    
    45   33   34 1    
    46   33   51 1    
    47   33   52 1    
    48   34   35 1    
    49   34   39 1    
    50   34   36 1    
    51   36   38 am   BACKBONE|DICT|INTERRES
    52   36   37 2    
    53   38   54 1    
    54   38   53 1    
    55   39   40 1    
    56   39   88 1    
    57   40   41 1    
    58   40   89 1    
    59   41   42 ar   
    60   41   46 ar   
    61   42   43 ar   
    62   43   55 1    
    63   43   44 ar   
    64   44   56 1    
    65   44   45 ar   
    66   45   46 ar   
    67   45   57 1    
    68   46   47 1    
    69   58   59 1    
    70   59   61 1    
    71   59   60 1    
    72   59   68 1    
    73   60   76 1    
    74   60   77 1    
    75   60   78 1    
    76   61   80 1    
    77   61   79 1    
    78   61   62 1    
    79   62   63 1    
    80   62   64 1    
    81   62   67 1    
    82   64   65 2    
    83   64   66 am   BACKBONE|DICT|INTERRES
    84   66   81 1    
    85   66   82 1    
    86   67   68 1    
    87   67   90 1    
    88   68   69 1    
    89   68   91 1    
    90   69   74 ar   
    91   69   70 ar   
    92   70   71 ar   
    93   71   72 ar   
    94   71   83 1    
    95   72   73 ar   
    96   72   84 1    
    97   73   85 1    
    98   73   74 ar   
    99   74   75 1    
@<TRIPOS>SUBSTRUCTURE
     1 UNK         1 GROUP             0       ****    0 ROOT    
@<TRIPOS>MOLECULE
239_B1_c1
88   96    1
SMALL
USER_CHARGES


@<TRIPOS>ATOM
      1 Fe1         0.0113    0.0123    0.0062 Fe        1 UNK         0.0000 
      2 O2          0.0220    2.2436   -0.0779 O.co2     1 UNK         0.0000 
      3 C3          0.9271    3.2823    0.1372 C.3       1 UNK         0.0000 
      4 C4          1.0509    3.8979   -1.2626 C.3       1 UNK         0.0000 
      5 C5          0.2762    4.1645    1.1918 C.3       1 UNK         0.0000 
      6 C6          1.4858    4.9510    1.7196 C.3       1 UNK         0.0000 
      7 H7          1.6114    5.8527    1.1239 H         1 UNK         0.0000 
      8 C8          1.2832    5.4551    3.1805 C.2       1 UNK         0.0000 
      9 O9          1.0866    4.7521    4.1658 O.2       1 UNK         0.0000 
     10 N10         1.3589    6.7550    3.4094 N.am      1 UNK         0.0000 
     11 N11         2.6547    4.0712    1.5950 N.3       1 UNK         0.0000 
     12 C12         2.2094    2.8289    0.9374 C.3       1 UNK         0.0000 
     13 C13         3.4055    2.0648    0.2682 C.ar      1 UNK         0.0000 
     14 N14         4.6266    2.7195    0.1913 N.ar      1 UNK         0.0000 
     15 C15         5.7333    2.0063   -0.1425 C.ar      1 UNK         0.0000 
     16 C16         5.7021    0.6628   -0.4897 C.ar      1 UNK         0.0000 
     17 C17         4.4666    0.0202   -0.4868 C.ar      1 UNK         0.0000 
     18 C18         3.3257    0.7053   -0.0861 C.ar      1 UNK         0.0000 
     19 O19         2.2682    0.0258   -0.0410 O.co2     1 UNK         0.0000 
     20 H20         1.4720    3.1909   -1.9651 H         1 UNK         0.0000 
     21 H21         0.0845    4.1659   -1.6853 H         1 UNK         0.0000 
     22 H22         1.6536    4.7933   -1.2814 H         1 UNK         0.0000 
     23 H23        -0.5338    4.7760    0.7797 H         1 UNK         0.0000 
     24 H24        -0.1620    3.5556    1.9903 H         1 UNK         0.0000 
     25 H25         1.6030    7.3824    2.6683 H         1 UNK         0.0000 
     26 H26         1.3362    6.9659    4.3890 H         1 UNK         0.0000 
     27 H27         6.6660    2.5386   -0.0460 H         1 UNK         0.0000 
     28 H28         6.5853    0.1079   -0.7346 H         1 UNK         0.0000 
     29 H29         4.3636   -1.0243   -0.7209 H         1 UNK         0.0000 
     30 O30         0.0086   -2.1530    0.0727 O.co2     1 UNK         0.0000 
     31 C31         0.0846   -3.2603    0.9091 C.2       1 UNK         0.0000 
     32 C32        -1.3278   -3.8269    1.0404 C.3       1 UNK         0.0000 
     33 C33         1.1370   -4.1641    0.2739 C.3       1 UNK         0.0000 
     34 C34         1.6258   -5.0121    1.4488 C.3       1 UNK         0.0000 
     35 H35         0.9816   -5.8692    1.6210 H         1 UNK         0.0000 
     36 C36         3.0751   -5.5436    1.2550 C.2       1 UNK         0.0000 
     37 O37         4.0725   -4.8665    1.0354 O.2       1 UNK         0.0000 
     38 N38         3.2815   -6.8446    1.3600 N.am      1 UNK         0.0000 
     39 N39         1.5858   -4.0535    2.5467 N.pl3     1 UNK         0.0000 
     40 C40         0.7316   -3.0000    2.2556 C.2       1 UNK         0.0000 
     41 C41         0.3186   -2.0498    3.3751 C.ar      1 UNK         0.0000 
     42 N42         0.3733   -2.6650    4.6036 N.ar      1 UNK         0.0000 
     43 C43         0.1174   -1.9534    5.7266 C.ar      1 UNK         0.0000 
     44 C44        -0.2511   -0.6174    5.7038 C.ar      1 UNK         0.0000 
     45 C45        -0.3180    0.0253    4.4722 C.ar      1 UNK         0.0000 
     46 C46        -0.0131   -0.6664    3.2973 C.ar      1 UNK         0.0000 
     47 O47        -0.0652    0.0276    2.2438 O.co2     1 UNK         0.0000 
     48 H48        -1.9766   -3.0958    1.5114 H         1 UNK         0.0000 
     49 H49        -1.7690   -4.0889    0.0848 H         1 UNK         0.0000 
     50 H50        -1.3212   -4.7088    1.6702 H         1 UNK         0.0000 
     51 H51         0.7112   -4.7528   -0.5437 H         1 UNK         0.0000 
     52 H52         1.9680   -3.5857   -0.1508 H         1 UNK         0.0000 
     53 H53         2.5234   -7.4580    1.5856 H         1 UNK         0.0000 
     54 H54         4.2529   -7.0843    1.2859 H         1 UNK         0.0000 
     55 H55         0.2483   -2.5000    6.6456 H         1 UNK         0.0000 
     56 H56        -0.4740   -0.0741    6.6022 H         1 UNK         0.0000 
     57 H57        -0.5851    1.0648    4.3905 H         1 UNK         0.0000 
     58 O58        -2.2167   -0.0400   -0.1039 O.co2     1 UNK         0.0000 
     59 C59        -3.3069   -0.0701   -0.9702 C.3       1 UNK         0.0000 
     60 C60        -3.7070   -1.5504   -0.9915 C.3       1 UNK         0.0000 
     61 C61        -4.2806    0.8906   -0.3135 C.3       1 UNK         0.0000 
     62 C62        -5.1030    1.3239   -1.5104 C.3       1 UNK         0.0000 
     63 H63        -5.9179    0.6223   -1.6962 H         1 UNK         0.0000 
     64 C64        -5.7710    2.7201   -1.3699 C.2       1 UNK         0.0000 
     65 O65        -5.1948    3.7868   -1.1863 O.2       1 UNK         0.0000 
     66 N66        -7.0886    2.7771   -1.4756 N.am      1 UNK         0.0000 
     67 N67        -4.2147    1.2806   -2.6525 N.2       1 UNK         0.0000 
     68 C68        -3.1545    0.5768   -2.3867 C.2       1 UNK         0.0000 
     69 C69        -2.1013    0.2859   -3.4511 C.ar      1 UNK         0.0000 
     70 N70        -2.6417    0.3095   -4.7204 N.ar      1 UNK         0.0000 
     71 C71        -1.8800    0.0429   -5.7979 C.ar      1 UNK         0.0000 
     72 C72        -0.5355   -0.2640   -5.7109 C.ar      1 UNK         0.0000 
     73 C73         0.0519   -0.2890   -4.4505 C.ar      1 UNK         0.0000 
     74 C74        -0.7213   -0.0344   -3.3114 C.ar      1 UNK         0.0000 
     75 O75        -0.0672   -0.1291   -2.2432 O.co2     1 UNK         0.0000 
     76 H76        -2.8997   -2.1416   -1.4184 H         1 UNK         0.0000 
     77 H77        -3.9054   -1.9543   -0.0001 H         1 UNK         0.0000 
     78 H78        -4.5914   -1.7036   -1.6079 H         1 UNK         0.0000 
     79 H79        -4.8434    0.4337    0.5029 H         1 UNK         0.0000 
     80 H80        -3.7635    1.7594    0.1193 H         1 UNK         0.0000 
     81 H81        -7.6132    1.9524   -1.7119 H         1 UNK         0.0000 
     82 H82        -7.4410    3.7170   -1.4594 H         1 UNK         0.0000 
     83 H83        -2.4166    0.0917   -6.7288 H         1 UNK         0.0000 
     84 H84         0.0524   -0.4928   -6.5843 H         1 UNK         0.0000 
     85 H85         1.0936   -0.5275   -4.3113 H         1 UNK         0.0000 
     86 H86         3.3492    4.3849    0.9264 H         1 UNK         0.0000 
     87 H87         1.8721    2.1425    1.7254 H         1 UNK         0.0000 
     88 H88         1.3141   -4.4416    3.4409 H         1 UNK         0.0000 
@<TRIPOS>BOND
     1    1    2 nc   
     2    1   19 nc   
     3    1   30 nc   
     4    1   47 nc   
     5    1   58 nc   
     6    1   75 nc   
     7    2    3 1    
     8    3   12 1    
     9    3    5 1    
    10    3    4 1    
    11    4   22 1    
    12    4   20 1    
    13    4   21 1    
    14    5    6 1    
    15    5   24 1    
    16    5   23 1    
    17    6    7 1    
    18    6    8 1    
    19    6   11 1    
    20    8   10 am   BACKBONE|DICT|INTERRES
    21    8    9 2    
    22   10   26 1    
    23   10   25 1    
    24   11   12 1    
    25   11   86 1    
    26   12   13 1    
    27   12   87 1    
    28   13   14 ar   
    29   13   18 ar   
    30   14   15 ar   
    31   15   27 1    
    32   15   16 ar   
    33   16   17 ar   
    34   16   28 1    
    35   17   18 ar   
    36   17   29 1    
    37   18   19 1    
    38   30   31 1    
    39   31   32 1    
    40   31   40 2    
    41   31   33 1    
    42   32   48 1    
    43   32   50 1    
    44   32   49 1    
    45   33   34 1    
    46   33   51 1    
    47   33   52 1    
    48   34   35 1    
    49   34   39 1    
    50   34   36 1    
    51   36   38 am   BACKBONE|DICT|INTERRES
    52   36   37 2    
    53   38   53 1    
    54   38   54 1    
    55   39   40 1    
    56   39   88 1    
    57   40   41 1    
    58   41   42 ar   
    59   41   46 ar   
    60   42   43 ar   
    61   43   55 1    
    62   43   44 ar   
    63   44   56 1    
    64   44   45 ar   
    65   45   46 ar   
    66   45   57 1    
    67   46   47 1    
    68   58   59 1    
    69   59   61 1    
    70   59   60 1    
    71   59   68 1    
    72   60   77 1    
    73   60   76 1    
    74   60   78 1    
    75   61   80 1    
    76   61   79 1    
    77   61   62 1    
    78   62   63 1    
    79   62   64 1    
    80   62   67 1    
    81   64   65 2    
    82   64   66 am   BACKBONE|DICT|INTERRES
    83   66   82 1    
    84   66   81 1    
    85   67   68 2    
    86   68   69 1    
    87   69   74 ar   
    88   69   70 ar   
    89   70   71 ar   
    90   71   72 ar   
    91   71   83 1    
    92   72   73 ar   
    93   72   84 1    
    94   73   85 1    
    95   73   74 ar   
    96   74   75 1    
@<TRIPOS>SUBSTRUCTURE
     1 UNK         1 GROUP             0       ****    0 ROOT    
@<TRIPOS>MOLECULE
239_B_c1
91   99    1
SMALL
USER_CHARGES


@<TRIPOS>ATOM
      1 Fe1        -0.0153   -0.0147   -0.0090 Fe        1 UNK         0.0000 
      2 O2         -0.0157    2.2286   -0.0257 O.co2     1 UNK         0.0000 
      3 C3          0.9147    3.2714    0.0104 C.3       1 UNK         0.0000 
      4 C4          0.9657    3.7669   -1.4459 C.3       1 UNK         0.0000 
      5 C5          0.3471    4.2615    1.0194 C.3       1 UNK         0.0000 
      6 C6          1.5934    5.1097    1.3774 C.3       1 UNK         0.0000 
      7 H7          1.7089    5.9267    0.6651 H         1 UNK         0.0000 
      8 C8          1.5557    5.8510    2.7542 C.2       1 UNK         0.0000 
      9 O9          2.4955    6.5192    3.1893 O.2       1 UNK         0.0000 
     10 N10         0.4602    5.8213    3.4949 N.am      1 UNK         0.0000 
     11 N11         2.7187    4.1714    1.3151 N.3       1 UNK         0.0000 
     12 C12         2.2453    2.8879    0.7587 C.3       1 UNK         0.0000 
     13 C13         3.4096    2.0569    0.1109 C.ar      1 UNK         0.0000 
     14 N14         4.6362    2.6887   -0.0290 N.ar      1 UNK         0.0000 
     15 C15         5.7338    1.9528   -0.3357 C.ar      1 UNK         0.0000 
     16 C16         5.6829    0.5937   -0.5958 C.ar      1 UNK         0.0000 
     17 C17         4.4422   -0.0387   -0.5263 C.ar      1 UNK         0.0000 
     18 C18         3.3114    0.6784   -0.1418 C.ar      1 UNK         0.0000 
     19 O19         2.2518    0.0045   -0.0081 O.co2     1 UNK         0.0000 
     20 H20         1.5732    4.6514   -1.5726 H         1 UNK         0.0000 
     21 H21        -0.0149    4.0105   -1.8452 H         1 UNK         0.0000 
     22 H22         1.3519    3.0068   -2.1121 H         1 UNK         0.0000 
     23 H23        -0.0311    3.7235    1.8989 H         1 UNK         0.0000 
     24 H24        -0.4985    4.8228    0.6138 H         1 UNK         0.0000 
     25 H25        -0.2450    5.1416    3.2504 H         1 UNK         0.0000 
     26 H26         0.6069    6.1618    4.4220 H         1 UNK         0.0000 
     27 H27         6.6749    2.4827   -0.2960 H         1 UNK         0.0000 
     28 H28         6.5597    0.0203   -0.8290 H         1 UNK         0.0000 
     29 H29         4.3260   -1.0897   -0.6999 H         1 UNK         0.0000 
     30 O30        -0.0202   -2.2529    0.0059 O.co2     1 UNK         0.0000 
     31 C31         0.1064   -3.2792    0.9384 C.3       1 UNK         0.0000 
     32 C32        -1.3358   -3.7869    1.1112 C.3       1 UNK         0.0000 
     33 C33         1.0743   -4.2473    0.2758 C.3       1 UNK         0.0000 
     34 C34         1.5579   -5.0759    1.4880 C.3       1 UNK         0.0000 
     35 H35         0.8724   -5.9030    1.6721 H         1 UNK         0.0000 
     36 C36         2.9356   -5.7902    1.3221 C.2       1 UNK         0.0000 
     37 O37         3.4677   -6.4459    2.2197 O.2       1 UNK         0.0000 
     38 N38         3.5689   -5.7491    0.1621 N.am      1 UNK         0.0000 
     39 N39         1.5895   -4.1266    2.6070 N.3       1 UNK         0.0000 
     40 C40         0.9626   -2.8547    2.1858 C.3       1 UNK         0.0000 
     41 C41         0.4040   -2.0328    3.4075 C.ar      1 UNK         0.0000 
     42 N42         0.4560   -2.6468    4.6426 N.ar      1 UNK         0.0000 
     43 C43         0.2634   -1.9107    5.7653 C.ar      1 UNK         0.0000 
     44 C44        -0.0828   -0.5691    5.7338 C.ar      1 UNK         0.0000 
     45 C45        -0.2199    0.0430    4.4915 C.ar      1 UNK         0.0000 
     46 C46         0.0511   -0.6695    3.3204 C.ar      1 UNK         0.0000 
     47 O47        -0.0131   -0.0145    2.2529 O.co2     1 UNK         0.0000 
     48 H48        -1.4003   -4.6693    1.7312 H         1 UNK         0.0000 
     49 H49        -1.8103   -4.0397    0.1668 H         1 UNK         0.0000 
     50 H50        -1.9759   -3.0294    1.5444 H         1 UNK         0.0000 
     51 H51         1.9057   -3.6942   -0.1840 H         1 UNK         0.0000 
     52 H52         0.6035   -4.8173   -0.5300 H         1 UNK         0.0000 
     53 H53         3.2472   -5.0742   -0.5174 H         1 UNK         0.0000 
     54 H54         4.5113   -6.0720    0.2247 H         1 UNK         0.0000 
     55 H55         0.4572   -2.4210    6.6935 H         1 UNK         0.0000 
     56 H56        -0.2307    0.0107    6.6283 H         1 UNK         0.0000 
     57 H57        -0.4649    1.0827    4.3892 H         1 UNK         0.0000 
     58 O58        -2.2502   -0.0325   -0.0059 O.co2     1 UNK         0.0000 
     59 C59        -3.2710   -0.0567   -0.9474 C.3       1 UNK         0.0000 
     60 C60        -3.6129   -1.5541   -1.0754 C.3       1 UNK         0.0000 
     61 C61        -4.3555    0.8177   -0.3323 C.3       1 UNK         0.0000 
     62 C62        -5.2177    1.1649   -1.5686 C.3       1 UNK         0.0000 
     63 H63        -5.9561    0.3814   -1.7378 H         1 UNK         0.0000 
     64 C64        -6.0853    2.4569   -1.4578 C.2       1 UNK         0.0000 
     65 O65        -6.7983    2.8718   -2.3734 O.2       1 UNK         0.0000 
     66 N66        -6.1052    3.1445   -0.3286 N.am      1 UNK         0.0000 
     67 N67        -4.2562    1.2757   -2.6714 N.3       1 UNK         0.0000 
     68 C68        -2.9303    0.7950   -2.2275 C.3       1 UNK         0.0000 
     69 C69        -2.0544    0.2925   -3.4410 C.ar      1 UNK         0.0000 
     70 N70        -2.6475    0.3170   -4.6890 N.ar      1 UNK         0.0000 
     71 C71        -1.8781    0.1886   -5.7989 C.ar      1 UNK         0.0000 
     72 C72        -0.5162   -0.0664   -5.7495 C.ar      1 UNK         0.0000 
     73 C73         0.0805   -0.1818   -4.4976 C.ar      1 UNK         0.0000 
     74 C74        -0.6740    0.0230   -3.3415 C.ar      1 UNK         0.0000 
     75 O75        -0.0374   -0.0241   -2.2662 O.co2     1 UNK         0.0000 
     76 H76        -4.4783   -1.7439   -1.6983 H         1 UNK         0.0000 
     77 H77        -3.8177   -2.0214   -0.1147 H         1 UNK         0.0000 
     78 H78        -2.7809   -2.1195   -1.4790 H         1 UNK         0.0000 
     79 H79        -3.9033    1.7197    0.1032 H         1 UNK         0.0000 
     80 H80        -4.8776    0.3106    0.4850 H         1 UNK         0.0000 
     81 H81        -5.4297    2.9092    0.3834 H         1 UNK         0.0000 
     82 H82        -6.5352    4.0401   -0.4207 H         1 UNK         0.0000 
     83 H83        -2.3871    0.3578   -6.7308 H         1 UNK         0.0000 
     84 H84         0.0891   -0.1683   -6.6334 H         1 UNK         0.0000 
     85 H85         1.1339   -0.3613   -4.3778 H         1 UNK         0.0000 
     86 H86         3.4003    4.4452    0.6193 H         1 UNK         0.0000 
     87 H87         1.9541    2.2535    1.6033 H         1 UNK         0.0000 
     88 H88         0.9690   -4.4032    3.3549 H         1 UNK         0.0000 
     89 H89         1.7610   -2.2042    1.8095 H         1 UNK         0.0000 
     90 H90        -4.4576    0.6124   -3.4080 H         1 UNK         0.0000 
     91 H91        -2.3627    1.6662   -1.8744 H         1 UNK         0.0000 
@<TRIPOS>BOND
     1    1    2 nc   
     2    1   19 nc   
     3    1   30 nc   
     4    1   47 nc   
     5    1   58 nc   
     6    1   75 nc   
     7    2    3 1    
     8    3   12 1    
     9    3    5 1    
    10    3    4 1    
    11    4   20 1    
    12    4   21 1    
    13    4   22 1    
    14    5    6 1    
    15    5   23 1    
    16    5   24 1    
    17    6    7 1    
    18    6    8 1    
    19    6   11 1    
    20    8    9 2    
    21    8   10 am   BACKBONE|DICT|INTERRES
    22   10   26 1    
    23   10   25 1    
    24   11   12 1    
    25   11   86 1    
    26   12   13 1    
    27   12   87 1    
    28   13   14 ar   
    29   13   18 ar   
    30   14   15 ar   
    31   15   16 ar   
    32   15   27 1    
    33   16   17 ar   
    34   16   28 1    
    35   17   18 ar   
    36   17   29 1    
    37   18   19 1    
    38   30   31 1    
    39   31   32 1    
    40   31   40 1    
    41   31   33 1    
    42   32   50 1    
    43   32   48 1    
    44   32   49 1    
    45   33   34 1    
    46   33   51 1    
    47   33   52 1    
    48   34   35 1    
    49   34   39 1    
    50   34   36 1    
    51   36   37 2    
    52   36   38 am   BACKBONE|DICT|INTERRES
    53   38   53 1    
    54   38   54 1    
    55   39   40 1    
    56   39   88 1    
    57   40   41 1    
    58   40   89 1    
    59   41   42 ar   
    60   41   46 ar   
    61   42   43 ar   
    62   43   55 1    
    63   43   44 ar   
    64   44   56 1    
    65   44   45 ar   
    66   45   46 ar   
    67   45   57 1    
    68   46   47 1    
    69   58   59 1    
    70   59   61 1    
    71   59   60 1    
    72   59   68 1    
    73   60   77 1    
    74   60   76 1    
    75   60   78 1    
    76   61   79 1    
    77   61   80 1    
    78   61   62 1    
    79   62   63 1    
    80   62   64 1    
    81   62   67 1    
    82   64   66 am   BACKBONE|DICT|INTERRES
    83   64   65 2    
    84   66   81 1    
    85   66   82 1    
    86   67   68 1    
    87   67   90 1    
    88   68   69 1    
    89   68   91 1    
    90   69   74 ar   
    91   69   70 ar   
    92   70   71 ar   
    93   71   72 ar   
    94   71   83 1    
    95   72   73 ar   
    96   72   84 1    
    97   73   85 1    
    98   73   74 ar   
    99   74   75 1    
@<TRIPOS>SUBSTRUCTURE
     1 UNK         1 GROUP             0       ****    0 ROOT    
@<TRIPOS>MOLECULE
239_C_c1
100   108    1
SMALL
USER_CHARGES


@<TRIPOS>ATOM
      1 Fe1        -0.0272   -0.0359   -0.0088 Fe        1 UNK         0.0000 
      2 C2         -0.0840    4.1296   -2.2038 C.3       1 UNK         0.0000 
      3 C3          1.1715    3.7189   -1.3796 C.3       1 UNK         0.0000 
      4 C4          0.9486    3.2634    0.0902 C.3       1 UNK         0.0000 
      5 O5          0.0215    2.2130    0.0358 O.co2     1 UNK         0.0000 
      6 C6          0.3375    4.3327    1.0045 C.3       1 UNK         0.0000 
      7 C7          1.5596    5.1192    1.5178 C.3       1 UNK         0.0000 
      8 H8          1.7901    5.9380    0.8309 H         1 UNK         0.0000 
      9 C9          1.2615    5.8301    2.8854 C.2       1 UNK         0.0000 
     10 O10         1.9379    5.7122    3.9008 O.2       1 UNK         0.0000 
     11 N11         0.2550    6.6995    2.9282 N.am      1 UNK         0.0000 
     12 N12         2.6905    4.1905    1.4975 N.3       1 UNK         0.0000 
     13 C13         2.2428    2.9073    0.9212 C.3       1 UNK         0.0000 
     14 C14         3.4284    2.0579    0.3553 C.ar      1 UNK         0.0000 
     15 N15         4.6636    2.6816    0.3552 N.ar      1 UNK         0.0000 
     16 C16         5.7815    1.9312    0.1847 C.ar      1 UNK         0.0000 
     17 C17         5.7521    0.5666   -0.0788 C.ar      1 UNK         0.0000 
     18 C18         4.5034   -0.0446   -0.1789 C.ar      1 UNK         0.0000 
     19 C19         3.3319    0.6760    0.0417 C.ar      1 UNK         0.0000 
     20 O20         2.2474    0.0079   -0.0155 O.co2     1 UNK         0.0000 
     21 H21        -0.7632    3.2804   -2.3255 H         1 UNK         0.0000 
     22 H22        -0.6610    4.9357   -1.7507 H         1 UNK         0.0000 
     23 H23         0.1961    4.4434   -3.2086 H         1 UNK         0.0000 
     24 H24         1.6477    2.9008   -1.9244 H         1 UNK         0.0000 
     25 H25         1.8752    4.5510   -1.4015 H         1 UNK         0.0000 
     26 H26        -0.3979    4.9578    0.4922 H         1 UNK         0.0000 
     27 H27        -0.1851    3.8405    1.8301 H         1 UNK         0.0000 
     28 H28         0.1023    7.1701    3.8037 H         1 UNK         0.0000 
     29 H29        -0.4180    6.6945    2.1814 H         1 UNK         0.0000 
     30 H30         6.7227    2.4496    0.2745 H         1 UNK         0.0000 
     31 H31         6.6523   -0.0114   -0.1931 H         1 UNK         0.0000 
     32 H32         4.4209   -1.0984   -0.3977 H         1 UNK         0.0000 
     33 C33        -2.0299   -4.4941    0.0871 C.3       1 UNK         0.0000 
     34 C34        -1.2616   -3.8660    1.2832 C.3       1 UNK         0.0000 
     35 C35         0.1648   -3.3270    0.9890 C.3       1 UNK         0.0000 
     36 O36         0.0081   -2.2896    0.0543 O.co2     1 UNK         0.0000 
     37 C37         1.1041   -4.3585    0.3574 C.3       1 UNK         0.0000 
     38 C38         1.6087   -5.1539    1.5722 C.3       1 UNK         0.0000 
     39 H39         0.8954   -5.9411    1.8356 H         1 UNK         0.0000 
     40 C40         2.9243   -5.9404    1.2420 C.2       1 UNK         0.0000 
     41 O41         3.9686   -5.8637    1.8775 O.2       1 UNK         0.0000 
     42 N42         2.8852   -6.8223    0.2456 N.am      1 UNK         0.0000 
     43 N43         1.6581   -4.2032    2.6845 N.3       1 UNK         0.0000 
     44 C44         1.0298   -2.9365    2.2513 C.3       1 UNK         0.0000 
     45 C45         0.4820   -2.0924    3.4502 C.ar      1 UNK         0.0000 
     46 N46         0.5629   -2.6915    4.6949 N.ar      1 UNK         0.0000 
     47 C47         0.4325   -1.9170    5.8064 C.ar      1 UNK         0.0000 
     48 C48         0.1397   -0.5595    5.7619 C.ar      1 UNK         0.0000 
     49 C49        -0.0516    0.0173    4.5106 C.ar      1 UNK         0.0000 
     50 C50         0.1130   -0.7243    3.3446 C.ar      1 UNK         0.0000 
     51 O51        -0.0487   -0.0812    2.2581 O.co2     1 UNK         0.0000 
     52 H52        -2.1093   -3.7855   -0.7423 H         1 UNK         0.0000 
     53 H53        -1.5565   -5.3950   -0.3023 H         1 UNK         0.0000 
     54 H54        -3.0457   -4.7600    0.3783 H         1 UNK         0.0000 
     55 H55        -1.8670   -3.0470    1.6773 H         1 UNK         0.0000 
     56 H56        -1.2167   -4.6090    2.0786 H         1 UNK         0.0000 
     57 H57         0.6272   -4.9743   -0.4062 H         1 UNK         0.0000 
     58 H58         1.9284   -3.8365   -0.1374 H         1 UNK         0.0000 
     59 H59         3.7349   -7.3269    0.0550 H         1 UNK         0.0000 
     60 H60         2.1066   -6.7988   -0.3887 H         1 UNK         0.0000 
     61 H61         0.5789   -2.4071    6.7525 H         1 UNK         0.0000 
     62 H62         0.0674    0.0373    6.6528 H         1 UNK         0.0000 
     63 H63        -0.2987    1.0657    4.4176 H         1 UNK         0.0000 
     64 C64        -4.4252   -2.1102   -0.1509 C.3       1 UNK         0.0000 
     65 C65        -3.7972   -1.3052   -1.3225 C.3       1 UNK         0.0000 
     66 C66        -3.3199    0.1370   -1.0108 C.3       1 UNK         0.0000 
     67 O67        -2.2802    0.0021   -0.0727 O.co2     1 UNK         0.0000 
     68 C68        -4.3834    1.0242   -0.3556 C.3       1 UNK         0.0000 
     69 C69        -5.1987    1.5248   -1.5590 C.3       1 UNK         0.0000 
     70 H70        -5.9606    0.7887   -1.8344 H         1 UNK         0.0000 
     71 C71        -6.0255    2.8109   -1.2077 C.2       1 UNK         0.0000 
     72 O72        -5.9381    3.8852   -1.7913 O.2       1 UNK         0.0000 
     73 N73        -6.9458    2.7095   -0.2491 N.am      1 UNK         0.0000 
     74 N74        -4.2529    1.6277   -2.6721 N.3       1 UNK         0.0000 
     75 C75        -2.9603    1.0412   -2.2527 C.3       1 UNK         0.0000 
     76 C76        -2.0801    0.5732   -3.4610 C.ar      1 UNK         0.0000 
     77 N77        -2.6532    0.7425   -4.7063 N.ar      1 UNK         0.0000 
     78 C78        -1.8678    0.6805   -5.8136 C.ar      1 UNK         0.0000 
     79 C79        -0.5151    0.3717   -5.7710 C.ar      1 UNK         0.0000 
     80 C80         0.0415    0.0906   -4.5279 C.ar      1 UNK         0.0000 
     81 C81        -0.7140    0.1938   -3.3620 C.ar      1 UNK         0.0000 
     82 O82        -0.0833   -0.0322   -2.2799 O.co2     1 UNK         0.0000 
     83 H83        -3.7348   -2.1797    0.6947 H         1 UNK         0.0000 
     84 H84        -5.3509   -1.6743    0.2218 H         1 UNK         0.0000 
     85 H85        -4.6521   -3.1290   -0.4627 H         1 UNK         0.0000 
     86 H86        -2.9512   -1.8791   -1.7083 H         1 UNK         0.0000 
     87 H87        -4.5265   -1.2744   -2.1299 H         1 UNK         0.0000 
     88 H88        -4.9854    0.5094    0.3936 H         1 UNK         0.0000 
     89 H89        -3.8952    1.8573    0.1593 H         1 UNK         0.0000 
     90 H90        -7.5031    3.5255   -0.0593 H         1 UNK         0.0000 
     91 H91        -6.8828    1.9298    0.3816 H         1 UNK         0.0000 
     92 H92        -2.3446    0.8828   -6.7566 H         1 UNK         0.0000 
     93 H93         0.0933    0.3507   -6.6547 H         1 UNK         0.0000 
     94 H94         1.0841   -0.1806   -4.4386 H         1 UNK         0.0000 
     95 H95         3.3483    4.4661    0.7857 H         1 UNK         0.0000 
     96 H96         1.8902    2.3139    1.7665 H         1 UNK         0.0000 
     97 H97         0.9828   -4.4724    3.3790 H         1 UNK         0.0000 
     98 H98         1.8440   -2.3167    1.8670 H         1 UNK         0.0000 
     99 H99        -4.5052    0.9649   -3.3844 H         1 UNK         0.0000 
    100 H100       -2.3808    1.8701   -1.8432 H         1 UNK         0.0000 
@<TRIPOS>BOND
     1    1    5 nc   
     2    1   20 nc   
     3    1   36 nc   
     4    1   51 nc   
     5    1   67 nc   
     6    1   82 nc   
     7    2   22 1    
     8    2    3 1    
     9    2   21 1    
    10    2   23 1    
    11    3   25 1    
    12    3    4 1    
    13    3   24 1    
    14    4    5 1    
    15    4   13 1    
    16    4    6 1    
    17    6    7 1    
    18    6   27 1    
    19    6   26 1    
    20    7    8 1    
    21    7    9 1    
    22    7   12 1    
    23    9   11 am   BACKBONE|DICT|INTERRES
    24    9   10 2    
    25   11   28 1    
    26   11   29 1    
    27   12   13 1    
    28   12   95 1    
    29   13   14 1    
    30   13   96 1    
    31   14   15 ar   
    32   14   19 ar   
    33   15   16 ar   
    34   16   30 1    
    35   16   17 ar   
    36   17   18 ar   
    37   17   31 1    
    38   18   19 ar   
    39   18   32 1    
    40   19   20 1    
    41   33   54 1    
    42   33   34 1    
    43   33   52 1    
    44   33   53 1    
    45   34   55 1    
    46   34   56 1    
    47   34   35 1    
    48   35   36 1    
    49   35   44 1    
    50   35   37 1    
    51   37   38 1    
    52   37   57 1    
    53   37   58 1    
    54   38   39 1    
    55   38   43 1    
    56   38   40 1    
    57   40   41 2    
    58   40   42 am   BACKBONE|DICT|INTERRES
    59   42   59 1    
    60   42   60 1    
    61   43   44 1    
    62   43   97 1    
    63   44   45 1    
    64   44   98 1    
    65   45   46 ar   
    66   45   50 ar   
    67   46   47 ar   
    68   47   61 1    
    69   47   48 ar   
    70   48   62 1    
    71   48   49 ar   
    72   49   50 ar   
    73   49   63 1    
    74   50   51 1    
    75   64   84 1    
    76   64   83 1    
    77   64   65 1    
    78   64   85 1    
    79   65   66 1    
    80   65   86 1    
    81   65   87 1    
    82   66   68 1    
    83   66   67 1    
    84   66   75 1    
    85   68   89 1    
    86   68   88 1    
    87   68   69 1    
    88   69   70 1    
    89   69   71 1    
    90   69   74 1    
    91   71   73 am   BACKBONE|DICT|INTERRES
    92   71   72 2    
    93   73   90 1    
    94   73   91 1    
    95   74   75 1    
    96   74   99 1    
    97   75   76 1    
    98   75  100 1    
    99   76   81 ar   
   100   76   77 ar   
   101   77   78 ar   
   102   78   79 ar   
   103   78   92 1    
   104   79   80 ar   
   105   79   93 1    
   106   80   94 1    
   107   80   81 ar   
   108   81   82 1    
@<TRIPOS>SUBSTRUCTURE
     1 UNK         1 GROUP             0       ****    0 ROOT    
@<TRIPOS>MOLECULE
240_c1
52   56    1
SMALL
USER_CHARGES


@<TRIPOS>ATOM
      1 Fe1         0.9360    0.7003    1.1282 Fe        1 UNK         0.0000 
      2 O2         -0.8113    5.9391   -1.9403 O.3       1 UNK         0.0000 
      3 C3          0.3696    5.5467   -1.4198 C.2       1 UNK         0.0000 
      4 O4          1.4356    5.9207   -1.8929 O.2       1 UNK         0.0000 
      5 C5          0.1883    4.7237   -0.1516 C.3       1 UNK         0.0000 
      6 C6          0.3184    3.1977   -0.2794 C.3       1 UNK         0.0000 
      7 O7          0.0550    2.7589    1.0446 O.co2     1 UNK         0.0000 
      8 C8          1.8378    2.7922   -0.6772 C.2       1 UNK         0.0000 
      9 O9          2.4390    2.0808    0.1907 O.co2     1 UNK         0.0000 
     10 O10         2.3122    3.1287   -1.7826 O.co2     1 UNK         0.0000 
     11 C11        -0.8298    2.4928   -1.0850 C.3       1 UNK         0.0000 
     12 C12        -0.8020    2.3268   -2.6192 C.2       1 UNK         0.0000 
     13 O13        -0.8852    3.3128   -3.3505 O.2       1 UNK         0.0000 
     14 N14        -0.8839    1.1082   -3.1958 N.am      1 UNK         0.0000 
     15 C15        -0.7462   -0.2431   -2.6085 C.3       1 UNK         0.0000 
     16 H16        -1.2841   -0.2851   -1.6616 H         1 UNK         0.0000 
     17 C17         0.7690   -0.5043   -2.2863 C.2       1 UNK         0.0000 
     18 O18         1.1030   -0.1157   -1.1321 O.co2     1 UNK         0.0000 
     19 O19         1.3870   -1.1127   -3.1955 O.co2     1 UNK         0.0000 
     20 C20        -1.4016   -1.3630   -3.4764 C.3       1 UNK         0.0000 
     21 C21        -1.2845   -2.8237   -2.9394 C.3       1 UNK         0.0000 
     22 C22        -1.7159   -3.1000   -1.4682 C.3       1 UNK         0.0000 
     23 N23        -0.6105   -3.1324   -0.5073 N.am      1 UNK         0.0000 
     24 C24        -0.6590   -3.6046    0.7645 C.2       1 UNK         0.0000 
     25 O25        -1.6257   -4.2337    1.1841 O.2       1 UNK         0.0000 
     26 C26         0.5800   -3.3172    1.6777 C.3       1 UNK         0.0000 
     27 C27         0.7600   -1.8520    2.2490 C.3       1 UNK         0.0000 
     28 O28         0.3174   -1.0011    1.2380 O.co2     1 UNK         0.0000 
     29 C29         2.3053   -1.5076    2.5050 C.2       1 UNK         0.0000 
     30 O30         2.6747   -0.3670    2.0626 O.co2     1 UNK         0.0000 
     31 O31         3.0429   -2.3203    3.0967 O.co2     1 UNK         0.0000 
     32 C32        -0.0574   -1.5392    3.5983 C.3       1 UNK         0.0000 
     33 C33        -0.9957   -0.2941    3.7000 C.2       1 UNK         0.0000 
     34 O34        -0.7938    0.6930    2.9332 O.co2     1 UNK         0.0000 
     35 O35        -1.8462   -0.3370    4.6266 O.co2     1 UNK         0.0000 
     36 H36         0.9330    5.0526    0.5742 H         1 UNK         0.0000 
     37 H37        -0.7914    4.9398    0.2787 H         1 UNK         0.0000 
     38 H38        -1.0259    1.5267   -0.6359 H         1 UNK         0.0000 
     39 H39        -1.7368    3.0511   -0.8570 H         1 UNK         0.0000 
     40 H40        -0.8440    1.1126   -4.1991 H         1 UNK         0.0000 
     41 H41        -0.9259   -1.3240   -4.4560 H         1 UNK         0.0000 
     42 H42        -2.4439   -1.1153   -3.6580 H         1 UNK         0.0000 
     43 H43        -1.8751   -3.4574   -3.5956 H         1 UNK         0.0000 
     44 H44        -0.2579   -3.1753   -3.0766 H         1 UNK         0.0000 
     45 H45        -2.2395   -4.0586   -1.4341 H         1 UNK         0.0000 
     46 H46        -2.4516   -2.3601   -1.1457 H         1 UNK         0.0000 
     47 H47         0.1534   -2.4733   -0.6405 H         1 UNK         0.0000 
     48 H48         0.6375   -4.0521    2.4746 H         1 UNK         0.0000 
     49 H49         1.4398   -3.5448    1.0488 H         1 UNK         0.0000 
     50 H50         0.6242   -1.4089    4.4424 H         1 UNK         0.0000 
     51 H51        -0.6754   -2.4028    3.8411 H         1 UNK         0.0000 
     52 H52        -0.5056    6.2301   -2.7924 H         1 UNK         0.0000 
@<TRIPOS>BOND
     1    1    7 nc   
     2    1    9 nc   
     3    1   18 nc   
     4    1   28 nc   
     5    1   30 nc   
     6    1   34 nc   
     7    2    3 1    
     8    2   52 1    
     9    3    5 1    
    10    3    4 2    
    11    5   37 1    
    12    5   36 1    
    13    5    6 1    
    14    6    7 1    
    15    6    8 1    
    16    6   11 1    
    17    8    9 1    
    18    8   10 2    
    19   11   39 1    
    20   11   38 1    
    21   11   12 1    
    22   12   13 2    
    23   12   14 am   BACKBONE|DICT|INTERRES
    24   14   15 1    
    25   14   40 1    
    26   15   17 1    
    27   15   16 1    
    28   15   20 1    
    29   17   18 1    
    30   17   19 2    
    31   20   21 1    
    32   20   41 1    
    33   20   42 1    
    34   21   22 1    
    35   21   43 1    
    36   21   44 1    
    37   22   45 1    
    38   22   46 1    
    39   22   23 1    
    40   23   24 am   BACKBONE|DICT|INTERRES
    41   23   47 1    
    42   24   25 2    
    43   24   26 1    
    44   26   48 1    
    45   26   27 1    
    46   26   49 1    
    47   27   28 1    
    48   27   32 1    
    49   27   29 1    
    50   29   31 2    
    51   29   30 1    
    52   32   51 1    
    53   32   50 1    
    54   32   33 1    
    55   33   35 2    
    56   33   34 1    
@<TRIPOS>SUBSTRUCTURE
     1 UNK         1 GROUP             0       ****    0 ROOT    
@<TRIPOS>MOLECULE
241_c1
107   110    1
SMALL
USER_CHARGES


@<TRIPOS>ATOM
      1 Fe1         0.0165    0.1819   -0.2121 Fe        1 UNK         0.0000 
      2 O2          5.7693   -7.3522    4.0852 O.3       1 UNK         0.0000 
      3 C3          4.9767   -7.4595    2.9765 C.2       1 UNK         0.0000 
      4 O4          4.0191   -8.2057    2.8925 O.2       1 UNK         0.0000 
      5 C5          5.5126   -6.7111    1.7417 C.3       1 UNK         0.0000 
      6 H6          4.8558   -6.9251    0.8870 H         1 UNK         0.0000 
      7 N7          6.7994   -7.4235    1.4144 N.4       1 UNK         0.0000 
      8 H8          6.5846   -8.4031    1.2945 H         1 UNK         0.0000 
      9 H9          7.4764   -7.3150    2.1535 H         1 UNK         0.0000 
     10 H10         7.1516   -7.0552    0.5478 H         1 UNK         0.0000 
     11 C11         5.6758   -5.1759    1.9537 C.3       1 UNK         0.0000 
     12 N12         4.4002   -4.4332    1.8713 N.am      1 UNK         0.0000 
     13 C13         3.7666   -4.1917    0.6967 C.2       1 UNK         0.0000 
     14 O14         4.2185   -4.7080   -0.3300 O.2       1 UNK         0.0000 
     15 C15         2.4334   -3.3781    0.7811 C.3       1 UNK         0.0000 
     16 C16         1.9953   -2.3311   -0.3264 C.3       1 UNK         0.0000 
     17 O17         0.6382   -1.9726   -0.1035 O.co2     1 UNK         0.0000 
     18 C18         2.8727   -1.0109   -0.1165 C.2       1 UNK         0.0000 
     19 O19         2.2395    0.1097    0.0497 O.co2     1 UNK         0.0000 
     20 O20         4.1133   -1.1603    0.0167 O.co2     1 UNK         0.0000 
     21 C21         2.1744   -2.9692   -1.7711 C.3       1 UNK         0.0000 
     22 C22         1.0270   -3.0385   -2.8209 C.2       1 UNK         0.0000 
     23 O23         0.6040   -4.1276   -3.1870 O.2       1 UNK         0.0000 
     24 N24         0.5622   -1.9167   -3.4185 N.am      1 UNK         0.0000 
     25 C25        -0.5045   -1.9107   -4.4358 C.3       1 UNK         0.0000 
     26 C26        -1.4372   -0.6576   -4.4405 C.3       1 UNK         0.0000 
     27 N27        -0.9952    0.4220   -5.3234 N.am      1 UNK         0.0000 
     28 C28        -1.6502    1.5789   -5.5060 C.2       1 UNK         0.0000 
     29 O29        -1.3576    2.2873   -6.4658 O.2       1 UNK         0.0000 
     30 C30        -2.8090    2.0035   -4.5613 C.3       1 UNK         0.0000 
     31 C31        -2.6073    3.2757   -3.6557 C.3       1 UNK         0.0000 
     32 C32        -1.5072    3.4000   -2.5545 C.2       1 UNK         0.0000 
     33 O33        -0.7331    4.3389   -2.7113 O.2       1 UNK         0.0000 
     34 C34        -1.4685    2.6819   -1.1676 C.2       1 UNK         0.0000 
     35 O35        -0.3557    2.3111   -0.6218 O.co2     1 UNK         0.0000 
     36 O36        -2.5611    2.7164   -0.5591 O.co2     1 UNK         0.0000 
     37 H37         6.1592   -4.9303    2.9071 H         1 UNK         0.0000 
     38 H38         6.3355   -4.7628    1.1803 H         1 UNK         0.0000 
     39 H39         4.0641   -3.8936    2.6523 H         1 UNK         0.0000 
     40 H40         2.4101   -2.8968    1.7557 H         1 UNK         0.0000 
     41 H41         1.6611   -4.1399    0.8384 H         1 UNK         0.0000 
     42 H42         2.2941   -4.0413   -1.5940 H         1 UNK         0.0000 
     43 H43         3.0976   -2.6452   -2.2636 H         1 UNK         0.0000 
     44 H44         0.9765   -1.0388   -3.1277 H         1 UNK         0.0000 
     45 H45        -1.1142   -2.8242   -4.4437 H         1 UNK         0.0000 
     46 H46         0.0737   -1.9462   -5.3689 H         1 UNK         0.0000 
     47 H47        -1.4551   -0.2587   -3.4243 H         1 UNK         0.0000 
     48 H48        -2.4763   -0.9490   -4.6288 H         1 UNK         0.0000 
     49 H49        -0.2095    0.2519   -5.9343 H         1 UNK         0.0000 
     50 H50        -3.6476    2.2096   -5.2267 H         1 UNK         0.0000 
     51 H51        -3.1435    1.1627   -3.9446 H         1 UNK         0.0000 
     52 H52        -2.3253    4.0587   -4.3718 H         1 UNK         0.0000 
     53 H53        -3.5584    3.6183   -3.2494 H         1 UNK         0.0000 
     54 O54        -5.6486   -3.7876    7.9205 O.2       1 UNK         0.0000 
     55 C55        -4.9510   -2.8909    7.4569 C.2       1 UNK         0.0000 
     56 O56        -3.6128   -2.7800    7.6530 O.3       1 UNK         0.0000 
     57 C57        -5.5657   -1.6760    6.7169 C.3       1 UNK         0.0000 
     58 H58        -5.0092   -0.7700    6.9573 H         1 UNK         0.0000 
     59 N59        -6.9195   -1.4875    7.3558 N.4       1 UNK         0.0000 
     60 H60        -6.7870   -1.3769    8.3467 H         1 UNK         0.0000 
     61 H61        -7.4634   -2.3284    7.1913 H         1 UNK         0.0000 
     62 H62        -7.3573   -0.6812    6.9533 H         1 UNK         0.0000 
     63 C63        -5.6764   -1.8962    5.1790 C.3       1 UNK         0.0000 
     64 N64        -4.3990   -1.8324    4.4361 N.am      1 UNK         0.0000 
     65 C65        -3.7134   -0.6784    4.2233 C.2       1 UNK         0.0000 
     66 O66        -4.0840    0.3346    4.8119 O.2       1 UNK         0.0000 
     67 C67        -2.4025   -0.7908    3.3794 C.3       1 UNK         0.0000 
     68 C68        -1.9632    0.2867    2.3004 C.3       1 UNK         0.0000 
     69 O69        -0.6156    0.0278    1.9356 O.co2     1 UNK         0.0000 
     70 C70        -2.8395    0.0634    0.9852 C.2       1 UNK         0.0000 
     71 O71        -2.2084   -0.0625   -0.1420 O.co2     1 UNK         0.0000 
     72 O72        -4.0774   -0.0983    1.1464 O.co2     1 UNK         0.0000 
     73 C73        -2.1157    1.7587    2.8808 C.3       1 UNK         0.0000 
     74 C74        -0.9106    2.7384    2.9620 C.2       1 UNK         0.0000 
     75 O75        -0.3312    2.9210    4.0372 O.2       1 UNK         0.0000 
     76 N76        -0.5668    3.4764    1.8909 N.am      1 UNK         0.0000 
     77 C77         0.5005    4.4968    1.8776 C.3       1 UNK         0.0000 
     78 C78         1.4330    4.4774    0.6244 C.3       1 UNK         0.0000 
     79 N79         1.0082    5.3510   -0.4645 N.am      1 UNK         0.0000 
     80 C80         1.6646    5.5153   -1.6236 C.2       1 UNK         0.0000 
     81 O81         1.3754    6.4685   -2.3455 O.2       1 UNK         0.0000 
     82 C82         2.8225    4.5670   -2.0342 C.3       1 UNK         0.0000 
     83 C83         2.6345    3.6589   -3.3076 C.3       1 UNK         0.0000 
     84 C84         1.5312    2.5568   -3.4344 C.2       1 UNK         0.0000 
     85 O85         0.7638    2.7110   -4.3794 O.2       1 UNK         0.0000 
     86 C86         1.4996    1.1801   -2.6981 C.2       1 UNK         0.0000 
     87 O87         0.3786    0.6244   -2.3361 O.co2     1 UNK         0.0000 
     88 O88         2.6005    0.6024   -2.6850 O.co2     1 UNK         0.0000 
     89 H89        -6.1501   -2.8596    4.9521 H         1 UNK         0.0000 
     90 H90        -6.3319   -1.1313    4.7461 H         1 UNK         0.0000 
     91 H91        -4.1154   -2.6059    3.8526 H         1 UNK         0.0000 
     92 H92        -2.3961   -1.7723    2.9155 H         1 UNK         0.0000 
     93 H93        -1.6189   -0.8443    4.1279 H         1 UNK         0.0000 
     94 H94        -2.3296    1.6583    3.9432 H         1 UNK         0.0000 
     95 H95        -2.9780    2.2789    2.4530 H         1 UNK         0.0000 
     96 H96        -1.0446    3.2582    1.0186 H         1 UNK         0.0000 
     97 H97         1.0975    4.5287    2.7978 H         1 UNK         0.0000 
     98 H98        -0.0828    5.4271    1.8914 H         1 UNK         0.0000 
     99 H99         1.4451    3.4589    0.2407 H         1 UNK         0.0000 
    100 H100        2.4740    4.6545    0.9097 H         1 UNK         0.0000 
    101 H101        0.2226    5.9663   -0.3094 H         1 UNK         0.0000 
    102 H102        3.6707    5.2257   -2.2280 H         1 UNK         0.0000 
    103 H103        3.1417    3.9491   -1.1883 H         1 UNK         0.0000 
    104 H104        2.3604    4.3706   -4.0967 H         1 UNK         0.0000 
    105 H105        3.5889    3.2528   -3.6379 H         1 UNK         0.0000 
    106 H106        5.9275   -6.4345    4.3035 H         1 UNK         0.0000 
    107 H107       -3.1623   -2.0282    7.2439 H         1 UNK         0.0000 
@<TRIPOS>BOND
     1    1   17 nc   
     2    1   19 nc   
     3    1   35 nc   
     4    1   69 nc   
     5    1   71 nc   
     6    1   87 nc   
     7    2    3 1    
     8    2  106 1    
     9    3    4 2    
    10    3    5 1    
    11    5    6 1    
    12    5   11 1    
    13    5    7 1    
    14    7    9 1    
    15    7    8 1    
    16    7   10 1    
    17   11   12 1    
    18   11   37 1    
    19   11   38 1    
    20   12   39 1    
    21   12   13 am   BACKBONE|DICT|INTERRES
    22   13   15 1    
    23   13   14 2    
    24   15   41 1    
    25   15   40 1    
    26   15   16 1    
    27   16   17 1    
    28   16   18 1    
    29   16   21 1    
    30   18   19 1    
    31   18   20 2    
    32   21   42 1    
    33   21   22 1    
    34   21   43 1    
    35   22   23 2    
    36   22   24 am   BACKBONE|DICT|INTERRES
    37   24   44 1    
    38   24   25 1    
    39   25   45 1    
    40   25   26 1    
    41   25   46 1    
    42   26   47 1    
    43   26   27 1    
    44   26   48 1    
    45   27   28 am   BACKBONE|DICT|INTERRES
    46   27   49 1    
    47   28   30 1    
    48   28   29 2    
    49   30   51 1    
    50   30   31 1    
    51   30   50 1    
    52   31   53 1    
    53   31   32 1    
    54   31   52 1    
    55   32   33 2    
    56   32   34 1    
    57   34   36 2    
    58   34   35 1    
    59   54   55 2    
    60   55   56 1    
    61   55   57 1    
    62   56  107 1    
    63   57   58 1    
    64   57   59 1    
    65   57   63 1    
    66   59   60 1    
    67   59   61 1    
    68   59   62 1    
    69   63   64 1    
    70   63   89 1    
    71   63   90 1    
    72   64   91 1    
    73   64   65 am   BACKBONE|DICT|INTERRES
    74   65   66 2    
    75   65   67 1    
    76   67   93 1    
    77   67   68 1    
    78   67   92 1    
    79   68   69 1    
    80   68   73 1    
    81   68   70 1    
    82   70   71 1    
    83   70   72 2    
    84   73   95 1    
    85   73   94 1    
    86   73   74 1    
    87   74   75 2    
    88   74   76 am   BACKBONE|DICT|INTERRES
    89   76   77 1    
    90   76   96 1    
    91   77   98 1    
    92   77   97 1    
    93   77   78 1    
    94   78  100 1    
    95   78   79 1    
    96   78   99 1    
    97   79  101 1    
    98   79   80 am   BACKBONE|DICT|INTERRES
    99   80   81 2    
   100   80   82 1    
   101   82  103 1    
   102   82   83 1    
   103   82  102 1    
   104   83   84 1    
   105   83  104 1    
   106   83  105 1    
   107   84   86 1    
   108   84   85 2    
   109   86   88 2    
   110   86   87 1    
@<TRIPOS>SUBSTRUCTURE
     1 UNK         1 GROUP             0       ****    0 ROOT    
@<TRIPOS>MOLECULE
242_c1
151   159    1
SMALL
USER_CHARGES


@<TRIPOS>ATOM
      1 Fe1         4.9835    1.0197    1.0462 Fe        1 UNK         0.0000 
      2 C2          5.2647    1.3378   -4.3858 C.ar      1 UNK         0.0000 
      3 C3          6.6376    1.3394   -4.1128 C.ar      1 UNK         0.0000 
      4 C4          7.0935    1.2936   -2.7942 C.ar      1 UNK         0.0000 
      5 C5          6.1668    1.1686   -1.7650 C.ar      1 UNK         0.0000 
      6 O6          6.5197    1.1048   -0.5463 O.co2     1 UNK         0.0000 
      7 C7          4.7884    1.1222   -2.0411 C.ar      1 UNK         0.0000 
      8 O8          4.0499    0.9221   -1.0289 O.co2     1 UNK         0.0000 
      9 C9          4.3100    1.2760   -3.3583 C.ar      1 UNK         0.0000 
     10 C10         2.8415    1.2908   -3.7221 C.2       1 UNK         0.0000 
     11 O11         2.1384    2.3121   -3.7238 O.2       1 UNK         0.0000 
     12 N12         2.4054    0.1184   -4.2310 N.am      1 UNK         0.0000 
     13 C13         1.0382   -0.2106   -4.6776 C.3       1 UNK         0.0000 
     14 H14         1.0856   -1.1981   -5.1343 H         1 UNK         0.0000 
     15 C15         0.4575    0.7886   -5.7579 C.3       1 UNK         0.0000 
     16 C16         1.0877    0.7114   -7.1667 C.3       1 UNK         0.0000 
     17 C17         0.3475    1.6010   -8.1893 C.3       1 UNK         0.0000 
     18 N18         0.9172    1.5078   -9.5515 N.pl3     1 UNK         0.0000 
     19 C19         0.4555    2.1044  -10.6674 C.cat     1 UNK         0.0000 
     20 N20        -0.6247    2.8879  -10.6231 N.pl3     1 UNK         0.0000 
     21 N21         1.0848    1.9142  -11.8359 N.pl3     1 UNK         0.0000 
     22 H22         0.7820    2.3545  -12.7023 H         1 UNK         0.0000 
     23 H23         1.9000    1.3149  -11.9109 H         1 UNK         0.0000 
     24 C24         0.1324   -0.4590   -3.4476 C.2       1 UNK         0.0000 
     25 O25         0.0884   -1.5804   -2.9468 O.2       1 UNK         0.0000 
     26 N26        -0.6767    0.5428   -3.0809 N.am      1 UNK         0.0000 
     27 C27        -1.5719    0.6148   -1.9069 C.3       1 UNK         0.0000 
     28 H28        -0.8860    0.7943   -1.0664 H         1 UNK         0.0000 
     29 C29        -2.5481   -0.6054   -1.6327 C.3       1 UNK         0.0000 
     30 H30        -3.5259   -0.1909   -1.3512 H         1 UNK         0.0000 
     31 C31        -2.8741   -1.5066   -2.8600 C.3       1 UNK         0.0000 
     32 O32        -2.1115   -1.2498   -0.4137 O.3       1 UNK         0.0000 
     33 C33        -2.7186   -2.3442    0.1207 C.2       1 UNK         0.0000 
     34 O34        -3.5016   -3.0689   -0.4937 O.2       1 UNK         0.0000 
     35 C35        -2.6056   -2.4481    1.6519 C.3       1 UNK         0.0000 
     36 H36        -3.2642   -3.2738    1.9208 H         1 UNK         0.0000 
     37 N37        -1.2664   -2.8267    2.1891 N.am      1 UNK         0.0000 
     38 C38        -0.7884   -4.0837    2.1561 C.2       1 UNK         0.0000 
     39 O39        -1.2443   -4.9118    1.3638 O.2       1 UNK         0.0000 
     40 C40         0.1816   -4.5535    3.2975 C.3       1 UNK         0.0000 
     41 H41        -0.4045   -4.3740    4.1976 H         1 UNK         0.0000 
     42 C42         0.5546   -6.0663    3.2618 C.3       1 UNK         0.0000 
     43 C43        -0.6273   -7.0553    3.3922 C.3       1 UNK         0.0000 
     44 C44        -0.2150   -8.5013    3.1009 C.3       1 UNK         0.0000 
     45 N45        -1.3729   -9.4098    3.1984 N.pl3     1 UNK         0.0000 
     46 C46        -1.6501  -10.3308    4.1341 C.cat     1 UNK         0.0000 
     47 N47        -0.8145  -10.5481    5.1509 N.pl3     1 UNK         0.0000 
     48 N48        -2.7795  -11.0442    4.0435 N.pl3     1 UNK         0.0000 
     49 H49        -3.0299  -11.7525    4.7268 H         1 UNK         0.0000 
     50 H50        -3.4369  -10.9333    3.2761 H         1 UNK         0.0000 
     51 N51         1.4268   -3.8047    3.5577 N.am      1 UNK         0.0000 
     52 C52         2.1359   -3.0366    2.7148 C.2       1 UNK         0.0000 
     53 O53         1.6981   -2.7912    1.5942 O.2       1 UNK         0.0000 
     54 C54         3.5145   -2.6034    3.2131 C.ar      1 UNK         0.0000 
     55 C55         4.2285   -1.5278    2.6474 C.ar      1 UNK         0.0000 
     56 O56         3.7344   -0.7184    1.8029 O.co2     1 UNK         0.0000 
     57 C57         5.5448   -1.2396    3.0425 C.ar      1 UNK         0.0000 
     58 O58         6.1299   -0.2770    2.4705 O.co2     1 UNK         0.0000 
     59 C59         6.1541   -1.9687    4.0644 C.ar      1 UNK         0.0000 
     60 C60         5.4365   -2.9781    4.7021 C.ar      1 UNK         0.0000 
     61 C61         4.1452   -3.2965    4.2759 C.ar      1 UNK         0.0000 
     62 C62        -3.2980   -1.2489    2.3651 C.3       1 UNK         0.0000 
     63 H63        -4.3025   -1.1409    1.9295 H         1 UNK         0.0000 
     64 C64        -3.4465   -1.4414    3.8867 C.3       1 UNK         0.0000 
     65 O65        -2.5501   -0.0867    2.0597 O.3       1 UNK         0.0000 
     66 C66        -3.0743    1.1404    2.1458 C.2       1 UNK         0.0000 
     67 O67        -4.1080    1.4294    2.7503 O.2       1 UNK         0.0000 
     68 C68        -2.3185    2.1033    1.2352 C.3       1 UNK         0.0000 
     69 H69        -1.4050    1.6219    0.8655 H         1 UNK         0.0000 
     70 C70        -3.2723    2.3635    0.0213 C.3       1 UNK         0.0000 
     71 H71        -3.8350    1.4500   -0.2062 H         1 UNK         0.0000 
     72 C72        -4.3468    3.4511    0.2258 C.3       1 UNK         0.0000 
     73 O73        -2.5470    2.7384   -1.1441 O.3       1 UNK         0.0000 
     74 C74        -2.3975    1.8809   -2.1817 C.2       1 UNK         0.0000 
     75 O75        -2.8739    2.1449   -3.2901 O.2       1 UNK         0.0000 
     76 N76        -1.8121    3.3398    1.8895 N.am      1 UNK         0.0000 
     77 C77        -1.3311    3.4963    3.1392 C.2       1 UNK         0.0000 
     78 O78        -1.5269    2.6951    4.0583 O.2       1 UNK         0.0000 
     79 C79        -0.6457    4.8534    3.4638 C.3       1 UNK         0.0000 
     80 H80        -0.9811    5.5756    2.7173 H         1 UNK         0.0000 
     81 C81        -1.0878    5.3219    4.8646 C.3       1 UNK         0.0000 
     82 C82        -0.7117    6.7382    5.3115 C.3       1 UNK         0.0000 
     83 C83        -1.2828    6.9791    6.7168 C.3       1 UNK         0.0000 
     84 N84        -1.0147    8.3373    7.2194 N.pl3     1 UNK         0.0000 
     85 C85        -1.8821    9.3530    7.3629 C.cat     1 UNK         0.0000 
     86 N86        -3.1579    9.2191    6.9936 N.pl3     1 UNK         0.0000 
     87 N87        -1.4600   10.5078    7.8955 N.pl3     1 UNK         0.0000 
     88 H88        -0.5012   10.6391    8.2034 H         1 UNK         0.0000 
     89 H89        -2.0820   11.2957    8.0612 H         1 UNK         0.0000 
     90 N90         0.8195    4.7714    3.4067 N.am      1 UNK         0.0000 
     91 C91         1.5005    4.5017    2.2733 C.2       1 UNK         0.0000 
     92 O92         0.9199    4.4076    1.1813 O.2       1 UNK         0.0000 
     93 C93         2.9994    4.4837    2.4521 C.ar      1 UNK         0.0000 
     94 C94         3.8176    3.3924    2.1155 C.ar      1 UNK         0.0000 
     95 O95         3.4411    2.2805    1.6258 O.co2     1 UNK         0.0000 
     96 C96         5.2106    3.4837    2.2334 C.ar      1 UNK         0.0000 
     97 O97         5.8339    2.4770    1.7972 O.co2     1 UNK         0.0000 
     98 C98         5.8285    4.6329    2.7203 C.ar      1 UNK         0.0000 
     99 C99         5.0258    5.7113    3.0908 C.ar      1 UNK         0.0000 
    100 C100        3.6316    5.6394    2.9552 C.ar      1 UNK         0.0000 
    101 H101        4.9380    1.3779   -5.4130 H         1 UNK         0.0000 
    102 H102        7.3597    1.3600   -4.9162 H         1 UNK         0.0000 
    103 H103        8.1505    1.2750   -2.5570 H         1 UNK         0.0000 
    104 H104        2.9889   -0.6560   -3.9224 H         1 UNK         0.0000 
    105 H105        0.5238    1.8158   -5.4114 H         1 UNK         0.0000 
    106 H106       -0.6177    0.6247   -5.8726 H         1 UNK         0.0000 
    107 H107        2.1459    0.9653   -7.1262 H         1 UNK         0.0000 
    108 H108        1.0413   -0.3248   -7.4965 H         1 UNK         0.0000 
    109 H109        0.3348    2.6427   -7.8629 H         1 UNK         0.0000 
    110 H110       -0.6944    1.2893   -8.2483 H         1 UNK         0.0000 
    111 H111        1.7589    0.9420   -9.5866 H         1 UNK         0.0000 
    112 H112       -1.1006    3.0429   -9.7476 H         1 UNK         0.0000 
    113 H113       -1.0041    3.3618  -11.4327 H         1 UNK         0.0000 
    114 H114       -0.4646    1.4424   -3.4822 H         1 UNK         0.0000 
    115 H115       -2.9996   -0.9085   -3.7578 H         1 UNK         0.0000 
    116 H116       -3.7876   -2.0775   -2.7380 H         1 UNK         0.0000 
    117 H117       -2.1164   -2.2505   -3.0569 H         1 UNK         0.0000 
    118 H118       -0.6494   -2.1043    2.5554 H         1 UNK         0.0000 
    119 H119        1.1069   -6.2532    2.3380 H         1 UNK         0.0000 
    120 H120        1.2548   -6.2948    4.0667 H         1 UNK         0.0000 
    121 H121       -1.1407   -6.9388    4.3481 H         1 UNK         0.0000 
    122 H122       -1.3798   -6.8264    2.6434 H         1 UNK         0.0000 
    123 H123        0.6698   -8.8140    3.6536 H         1 UNK         0.0000 
    124 H124        0.0820   -8.5579    2.0516 H         1 UNK         0.0000 
    125 H125       -2.0305   -9.2504    2.4385 H         1 UNK         0.0000 
    126 H126       -0.9805  -11.2504    5.8597 H         1 UNK         0.0000 
    127 H127        0.0425  -10.0232    5.2190 H         1 UNK         0.0000 
    128 H128        1.8902   -3.9334    4.4423 H         1 UNK         0.0000 
    129 H129        7.1484   -1.6904    4.3746 H         1 UNK         0.0000 
    130 H130        5.8925   -3.4968    5.5384 H         1 UNK         0.0000 
    131 H131        3.6436   -4.0850    4.8133 H         1 UNK         0.0000 
    132 H132       -3.9459   -2.3857    4.1003 H         1 UNK         0.0000 
    133 H133       -2.4793   -1.4479    4.3735 H         1 UNK         0.0000 
    134 H134       -4.0479   -0.6561    4.3419 H         1 UNK         0.0000 
    135 H135       -3.9147    4.4361    0.3601 H         1 UNK         0.0000 
    136 H136       -4.9722    3.2427    1.0939 H         1 UNK         0.0000 
    137 H137       -5.0169    3.5007   -0.6301 H         1 UNK         0.0000 
    138 H138       -1.3757    3.9728    1.2327 H         1 UNK         0.0000 
    139 H139       -2.1786    5.2389    4.8955 H         1 UNK         0.0000 
    140 H140       -0.7076    4.5830    5.5729 H         1 UNK         0.0000 
    141 H141        0.3749    6.8032    5.3374 H         1 UNK         0.0000 
    142 H142       -1.0571    7.4873    4.6036 H         1 UNK         0.0000 
    143 H143       -0.7462    6.3283    7.4098 H         1 UNK         0.0000 
    144 H144       -2.3259    6.6741    6.8121 H         1 UNK         0.0000 
    145 H145       -0.0418    8.4540    7.4906 H         1 UNK         0.0000 
    146 H146       -3.8467    9.9516    7.0983 H         1 UNK         0.0000 
    147 H147       -3.4857    8.3440    6.6145 H         1 UNK         0.0000 
    148 H148        1.3518    4.6801    4.2589 H         1 UNK         0.0000 
    149 H149        6.9024    4.6640    2.7473 H         1 UNK         0.0000 
    150 H150        5.4945    6.6207    3.4217 H         1 UNK         0.0000 
    151 H151        3.0474    6.5141    3.1542 H         1 UNK         0.0000 
@<TRIPOS>BOND
     1    1    6 nc   
     2    1    8 nc   
     3    1   56 nc   
     4    1   58 nc   
     5    1   95 nc   
     6    1   97 nc   
     7    2    3 ar   
     8    2    9 ar   
     9    2  101 1    
    10    3    4 ar   
    11    3  102 1    
    12    4  103 1    
    13    4    5 ar   
    14    5    6 1    
    15    5    7 ar   
    16    7    8 1    
    17    7    9 ar   
    18    9   10 1    
    19   10   11 2    
    20   10   12 am   BACKBONE|DICT|INTERRES
    21   12   13 1    
    22   12  104 1    
    23   13   14 1    
    24   13   24 1    
    25   13   15 1    
    26   15  105 1    
    27   15   16 1    
    28   15  106 1    
    29   16  107 1    
    30   16   17 1    
    31   16  108 1    
    32   17  109 1    
    33   17   18 1    
    34   17  110 1    
    35   18   19 ar   
    36   18  111 1    
    37   19   20 ar   
    38   19   21 ar   
    39   20  112 1    
    40   20  113 1    
    41   21   22 1    
    42   21   23 1    
    43   24   26 am   BACKBONE|DICT|INTERRES
    44   24   25 2    
    45   26   27 1    
    46   26  114 1    
    47   27   29 1    
    48   27   28 1    
    49   27   74 1    
    50   29   30 1    
    51   29   32 1    
    52   29   31 1    
    53   31  116 1    
    54   31  115 1    
    55   31  117 1    
    56   32   33 1    
    57   33   35 1    
    58   33   34 2    
    59   35   36 1    
    60   35   62 1    
    61   35   37 1    
    62   37  118 1    
    63   37   38 am   BACKBONE|DICT|INTERRES
    64   38   40 1    
    65   38   39 2    
    66   40   51 1    
    67   40   41 1    
    68   40   42 1    
    69   42   43 1    
    70   42  120 1    
    71   42  119 1    
    72   43  121 1    
    73   43   44 1    
    74   43  122 1    
    75   44   45 1    
    76   44  123 1    
    77   44  124 1    
    78   45   46 ar   
    79   45  125 1    
    80   46   47 ar   
    81   46   48 ar   
    82   47  127 1    
    83   47  126 1    
    84   48   49 1    
    85   48   50 1    
    86   51  128 1    
    87   51   52 am   BACKBONE|DICT|INTERRES
    88   52   54 1    
    89   52   53 2    
    90   54   61 ar   
    91   54   55 ar   
    92   55   57 ar   
    93   55   56 1    
    94   57   59 ar   
    95   57   58 1    
    96   59  129 1    
    97   59   60 ar   
    98   60  130 1    
    99   60   61 ar   
   100   61  131 1    
   101   62   63 1    
   102   62   64 1    
   103   62   65 1    
   104   64  132 1    
   105   64  134 1    
   106   64  133 1    
   107   65   66 1    
   108   66   67 2    
   109   66   68 1    
   110   68   69 1    
   111   68   76 1    
   112   68   70 1    
   113   70   71 1    
   114   70   72 1    
   115   70   73 1    
   116   72  135 1    
   117   72  136 1    
   118   72  137 1    
   119   73   74 1    
   120   74   75 2    
   121   76   77 am   BACKBONE|DICT|INTERRES
   122   76  138 1    
   123   77   79 1    
   124   77   78 2    
   125   79   80 1    
   126   79   81 1    
   127   79   90 1    
   128   81   82 1    
   129   81  140 1    
   130   81  139 1    
   131   82  141 1    
   132   82   83 1    
   133   82  142 1    
   134   83   84 1    
   135   83  143 1    
   136   83  144 1    
   137   84  145 1    
   138   84   85 ar   
   139   85   87 ar   
   140   85   86 ar   
   141   86  146 1    
   142   86  147 1    
   143   87   89 1    
   144   87   88 1    
   145   90  148 1    
   146   90   91 am   BACKBONE|DICT|INTERRES
   147   91   92 2    
   148   91   93 1    
   149   93  100 ar   
   150   93   94 ar   
   151   94   95 1    
   152   94   96 ar   
   153   96   98 ar   
   154   96   97 1    
   155   98   99 ar   
   156   98  149 1    
   157   99  100 ar   
   158   99  150 1    
   159  100  151 1    
@<TRIPOS>SUBSTRUCTURE
     1 UNK         1 GROUP             0       ****    0 ROOT    
@<TRIPOS>MOLECULE
244_c1
74   78    1
SMALL
USER_CHARGES


@<TRIPOS>ATOM
      1 Fe1        -0.0791    2.0714   -0.2687 Fe        1 UNK         0.0000 
      2 O2         -1.7004    2.4364    1.1397 O.co2     1 UNK         0.0000 
      3 C3         -1.2807    3.2619    1.9445 C.2       1 UNK         0.0000 
      4 C4         -2.2331    4.1641    2.7240 C.3       1 UNK         0.0000 
      5 N5          0.0634    3.2997    2.0291 N.am      1 UNK         0.0000 
      6 O6          0.7565    2.3231    1.4459 O.co2     1 UNK         0.0000 
      7 C7          0.8589    4.4614    2.5149 C.3       1 UNK         0.0000 
      8 C8          0.4830    5.9061    2.0438 C.3       1 UNK         0.0000 
      9 C9          1.3924    6.5433    0.9390 C.3       1 UNK         0.0000 
     10 C10         0.8082    6.8714   -0.4514 C.2       1 UNK         0.0000 
     11 O11         1.2033    7.8869   -1.0341 O.2       1 UNK         0.0000 
     12 C12        -0.2953    5.9960   -1.0739 C.3       1 UNK         0.0000 
     13 C13         0.0482    4.6505   -1.8194 C.3       1 UNK         0.0000 
     14 O14        -0.8698    3.7579   -1.2542 O.co2     1 UNK         0.0000 
     15 C15         1.5212    4.0939   -1.5151 C.2       1 UNK         0.0000 
     16 O16         1.4858    2.9799   -0.8984 O.co2     1 UNK         0.0000 
     17 O17         2.5537    4.7196   -1.8499 O.co2     1 UNK         0.0000 
     18 C18        -0.1218    4.6906   -3.3876 C.3       1 UNK         0.0000 
     19 C19        -1.3433    3.9826   -4.0497 C.2       1 UNK         0.0000 
     20 O20        -2.4255    4.5603   -4.2006 O.2       1 UNK         0.0000 
     21 C21        -1.1569    2.5597   -4.6304 C.3       1 UNK         0.0000 
     22 C22        -2.0935    1.4529   -4.0347 C.3       1 UNK         0.0000 
     23 C23        -1.3932    0.1964   -3.4280 C.3       1 UNK         0.0000 
     24 N24        -0.9231    0.3287   -2.0417 N.am      1 UNK         0.0000 
     25 O25        -0.0053    1.2268   -1.8547 O.co2     1 UNK         0.0000 
     26 C26        -1.3589   -0.2663   -0.9262 C.2       1 UNK         0.0000 
     27 O27        -0.8468    0.2500    0.0830 O.co2     1 UNK         0.0000 
     28 C28        -2.3201   -1.4493   -0.8836 C.3       1 UNK         0.0000 
     29 C29        -1.4324   -2.7013   -0.9446 C.3       1 UNK         0.0000 
     30 C30        -2.1785   -4.0082   -0.7084 C.3       1 UNK         0.0000 
     31 C31        -1.1636   -5.1597   -0.6988 C.3       1 UNK         0.0000 
     32 C32        -1.7599   -6.5239   -0.3642 C.3       1 UNK         0.0000 
     33 C33        -0.6605   -7.5926   -0.3552 C.3       1 UNK         0.0000 
     34 C34        -1.2217   -8.9607    0.0346 C.3       1 UNK         0.0000 
     35 C35        -0.1467  -10.0536    0.0422 C.3       1 UNK         0.0000 
     36 C36        -0.7330  -11.4095    0.4526 C.3       1 UNK         0.0000 
     37 H37        -2.8510    3.5659    3.3903 H         1 UNK         0.0000 
     38 H38        -1.7231    4.9126    3.3287 H         1 UNK         0.0000 
     39 H39        -2.8850    4.6619    2.0073 H         1 UNK         0.0000 
     40 H40         0.8167    4.4151    3.6009 H         1 UNK         0.0000 
     41 H41         1.9145    4.3036    2.2950 H         1 UNK         0.0000 
     42 H42        -0.5753    6.0414    1.8262 H         1 UNK         0.0000 
     43 H43         0.6407    6.5405    2.9223 H         1 UNK         0.0000 
     44 H44         2.3361    6.0049    0.8132 H         1 UNK         0.0000 
     45 H45         1.6742    7.5284    1.3123 H         1 UNK         0.0000 
     46 H46        -1.0098    5.8224   -0.2640 H         1 UNK         0.0000 
     47 H47        -0.8744    6.6179   -1.7436 H         1 UNK         0.0000 
     48 H48         0.7285    4.2003   -3.8518 H         1 UNK         0.0000 
     49 H49        -0.0375    5.7034   -3.7526 H         1 UNK         0.0000 
     50 H50        -0.0968    2.2773   -4.5975 H         1 UNK         0.0000 
     51 H51        -1.4078    2.6688   -5.6909 H         1 UNK         0.0000 
     52 H52        -2.6957    1.1037   -4.8624 H         1 UNK         0.0000 
     53 H53        -2.8203    1.8684   -3.3392 H         1 UNK         0.0000 
     54 H54        -2.0358   -0.6847   -3.5647 H         1 UNK         0.0000 
     55 H55        -0.5253   -0.0102   -4.0628 H         1 UNK         0.0000 
     56 H56        -2.8832   -1.4126    0.0542 H         1 UNK         0.0000 
     57 H57        -3.0403   -1.4006   -1.7042 H         1 UNK         0.0000 
     58 H58        -0.6221   -2.6331   -0.2066 H         1 UNK         0.0000 
     59 H59        -0.9187   -2.7546   -1.9143 H         1 UNK         0.0000 
     60 H60        -2.9319   -4.1504   -1.4875 H         1 UNK         0.0000 
     61 H61        -2.7161   -3.9517    0.2416 H         1 UNK         0.0000 
     62 H62        -0.3827   -4.9333    0.0312 H         1 UNK         0.0000 
     63 H63        -0.6675   -5.1991   -1.6700 H         1 UNK         0.0000 
     64 H64        -2.2449   -6.4854    0.6138 H         1 UNK         0.0000 
     65 H65        -2.5364   -6.7836   -1.0871 H         1 UNK         0.0000 
     66 H66         0.1304   -7.3078    0.3426 H         1 UNK         0.0000 
     67 H67        -0.1863   -7.6533   -1.3376 H         1 UNK         0.0000 
     68 H68        -2.0196   -9.2340   -0.6581 H         1 UNK         0.0000 
     69 H69        -1.6844   -8.8925    1.0210 H         1 UNK         0.0000 
     70 H70         0.3106  -10.1328   -0.9474 H         1 UNK         0.0000 
     71 H71         0.6601   -9.7806    0.7273 H         1 UNK         0.0000 
     72 H72        -1.1625  -11.3621    1.4556 H         1 UNK         0.0000 
     73 H73         0.0348  -12.1854    0.4528 H         1 UNK         0.0000 
     74 H74        -1.5245  -11.7195   -0.2331 H         1 UNK         0.0000 
@<TRIPOS>BOND
     1    1    2 nc   
     2    1    6 nc   
     3    1   14 nc   
     4    1   16 nc   
     5    1   25 nc   
     6    1   27 nc   
     7    2    3 2    
     8    3    4 1    
     9    3    5 am   BACKBONE|DICT|INTERRES
    10    4   38 1    
    11    4   37 1    
    12    4   39 1    
    13    5    7 1    
    14    5    6 1    
    15    7   40 1    
    16    7    8 1    
    17    7   41 1    
    18    8   42 1    
    19    8   43 1    
    20    8    9 1    
    21    9   44 1    
    22    9   45 1    
    23    9   10 1    
    24   10   11 2    
    25   10   12 1    
    26   12   46 1    
    27   12   13 1    
    28   12   47 1    
    29   13   14 1    
    30   13   15 1    
    31   13   18 1    
    32   15   16 1    
    33   15   17 2    
    34   18   19 1    
    35   18   48 1    
    36   18   49 1    
    37   19   20 2    
    38   19   21 1    
    39   21   22 1    
    40   21   50 1    
    41   21   51 1    
    42   22   53 1    
    43   22   23 1    
    44   22   52 1    
    45   23   24 1    
    46   23   54 1    
    47   23   55 1    
    48   24   25 1    
    49   24   26 am   BACKBONE|DICT|INTERRES
    50   26   28 1    
    51   26   27 2    
    52   28   29 1    
    53   28   56 1    
    54   28   57 1    
    55   29   30 1    
    56   29   58 1    
    57   29   59 1    
    58   30   61 1    
    59   30   31 1    
    60   30   60 1    
    61   31   32 1    
    62   31   62 1    
    63   31   63 1    
    64   32   33 1    
    65   32   64 1    
    66   32   65 1    
    67   33   34 1    
    68   33   66 1    
    69   33   67 1    
    70   34   35 1    
    71   34   69 1    
    72   34   68 1    
    73   35   36 1    
    74   35   71 1    
    75   35   70 1    
    76   36   72 1    
    77   36   73 1    
    78   36   74 1    
@<TRIPOS>SUBSTRUCTURE
     1 UNK         1 GROUP             0       ****    0 ROOT    
@<TRIPOS>MOLECULE
245_c1
68   72    1
SMALL
USER_CHARGES


@<TRIPOS>ATOM
      1 Fe1        -0.2548    1.0851    0.0867 Fe        1 UNK         0.0000 
      2 O2          1.2064    1.2155    1.7521 O.co2     1 UNK         0.0000 
      3 C3          0.8514    2.1482    2.4415 C.2       1 UNK         0.0000 
      4 C4          1.8526    2.9251    3.2847 C.3       1 UNK         0.0000 
      5 N5         -0.4450    2.4469    2.3031 N.am      1 UNK         0.0000 
      6 O6         -1.2078    1.5417    1.6748 O.co2     1 UNK         0.0000 
      7 C7         -0.9545    3.8464    2.3531 C.3       1 UNK         0.0000 
      8 C8         -0.0312    4.9916    1.7575 C.3       1 UNK         0.0000 
      9 C9         -0.4984    5.9258    0.6025 C.3       1 UNK         0.0000 
     10 C10        -1.1832    5.2841   -0.5983 C.2       1 UNK         0.0000 
     11 O11        -2.4181    5.2725   -0.6131 O.2       1 UNK         0.0000 
     12 C12        -0.3160    4.7998   -1.8117 C.3       1 UNK         0.0000 
     13 C13        -0.0799    3.2664   -2.0236 C.3       1 UNK         0.0000 
     14 O14         0.7195    2.7084   -1.0041 O.co2     1 UNK         0.0000 
     15 C15        -1.5076    2.6180   -1.9117 C.2       1 UNK         0.0000 
     16 O16        -1.6277    2.0782   -0.7629 O.co2     1 UNK         0.0000 
     17 O17        -2.2795    2.5776   -2.9004 O.co2     1 UNK         0.0000 
     18 C18         0.5788    2.9475   -3.4235 C.3       1 UNK         0.0000 
     19 C19         1.2728    1.5559   -3.6246 C.2       1 UNK         0.0000 
     20 O20         2.3698    1.2785   -3.1217 O.2       1 UNK         0.0000 
     21 C21         0.6205    0.5312   -4.5754 C.3       1 UNK         0.0000 
     22 C22         0.6951   -0.9641   -4.1282 C.3       1 UNK         0.0000 
     23 C23        -0.3356   -1.4078   -3.0509 C.3       1 UNK         0.0000 
     24 N24        -0.0523   -1.0665   -1.6551 N.am      1 UNK         0.0000 
     25 O25        -0.8301   -0.1740   -1.1199 O.co2     1 UNK         0.0000 
     26 C26         1.0839   -1.2544   -0.9481 C.2       1 UNK         0.0000 
     27 O27         1.1742   -0.4104   -0.0466 O.co2     1 UNK         0.0000 
     28 C28         2.0534   -2.4220   -1.1662 C.3       1 UNK         0.0000 
     29 C29         1.2827   -3.7573   -1.3133 C.3       1 UNK         0.0000 
     30 C30         2.1426   -5.0105   -1.1427 C.3       1 UNK         0.0000 
     31 C31         1.3069   -6.2840   -1.3841 C.3       1 UNK         0.0000 
     32 C32         2.0945   -7.5968   -1.2802 C.3       1 UNK         0.0000 
     33 C33         2.5988   -7.8935    0.1425 C.3       1 UNK         0.0000 
     34 C34         3.3219   -9.2420    0.2331 C.3       1 UNK         0.0000 
     35 H35         2.2331    2.2845    4.0785 H         1 UNK         0.0000 
     36 H36         2.6879    3.2090    2.6442 H         1 UNK         0.0000 
     37 H37         1.4058    3.8149    3.7240 H         1 UNK         0.0000 
     38 H38        -1.0851    4.0423    3.4208 H         1 UNK         0.0000 
     39 H39        -1.9675    3.9072    1.9515 H         1 UNK         0.0000 
     40 H40         0.2182    5.6605    2.5824 H         1 UNK         0.0000 
     41 H41         0.9236    4.5972    1.4255 H         1 UNK         0.0000 
     42 H42        -1.2569    6.6036    0.9845 H         1 UNK         0.0000 
     43 H43         0.3206    6.5521    0.2317 H         1 UNK         0.0000 
     44 H44        -0.8206    5.1808   -2.6954 H         1 UNK         0.0000 
     45 H45         0.6528    5.2914   -1.7863 H         1 UNK         0.0000 
     46 H46         1.3484    3.6817   -3.6504 H         1 UNK         0.0000 
     47 H47        -0.1736    3.0698   -4.2054 H         1 UNK         0.0000 
     48 H48        -0.4001    0.8385   -4.8170 H         1 UNK         0.0000 
     49 H49         1.1898    0.6280   -5.5030 H         1 UNK         0.0000 
     50 H50         1.6989   -1.2233   -3.8032 H         1 UNK         0.0000 
     51 H51         0.5217   -1.5694   -5.0186 H         1 UNK         0.0000 
     52 H52        -0.5588   -2.4701   -3.1254 H         1 UNK         0.0000 
     53 H53        -1.2817   -0.9452   -3.3526 H         1 UNK         0.0000 
     54 H54         2.6881   -2.2088   -2.0268 H         1 UNK         0.0000 
     55 H55         2.7077   -2.4727   -0.2928 H         1 UNK         0.0000 
     56 H56         0.4534   -3.8090   -0.5944 H         1 UNK         0.0000 
     57 H57         0.8160   -3.8194   -2.2973 H         1 UNK         0.0000 
     58 H58         2.5713   -5.0074   -0.1381 H         1 UNK         0.0000 
     59 H59         2.9848   -4.9743   -1.8379 H         1 UNK         0.0000 
     60 H60         0.4685   -6.3041   -0.6855 H         1 UNK         0.0000 
     61 H61         0.8592   -6.2247   -2.3777 H         1 UNK         0.0000 
     62 H62         1.4436   -8.4110   -1.6066 H         1 UNK         0.0000 
     63 H63         2.9285   -7.5834   -1.9842 H         1 UNK         0.0000 
     64 H64         3.2772   -7.1032    0.4721 H         1 UNK         0.0000 
     65 H65         1.7568   -7.8831    0.8393 H         1 UNK         0.0000 
     66 H66         4.1929   -9.2659   -0.4225 H         1 UNK         0.0000 
     67 H67         2.6630  -10.0630   -0.0506 H         1 UNK         0.0000 
     68 H68         3.6644   -9.4236    1.2515 H         1 UNK         0.0000 
@<TRIPOS>BOND
     1    1    2 nc   
     2    1    6 nc   
     3    1   14 nc   
     4    1   16 nc   
     5    1   25 nc   
     6    1   27 nc   
     7    2    3 2    
     8    3    4 1    
     9    3    5 am   BACKBONE|DICT|INTERRES
    10    4   37 1    
    11    4   35 1    
    12    4   36 1    
    13    5    7 1    
    14    5    6 1    
    15    7   38 1    
    16    7    8 1    
    17    7   39 1    
    18    8   40 1    
    19    8    9 1    
    20    8   41 1    
    21    9   42 1    
    22    9   10 1    
    23    9   43 1    
    24   10   11 2    
    25   10   12 1    
    26   12   13 1    
    27   12   44 1    
    28   12   45 1    
    29   13   15 1    
    30   13   14 1    
    31   13   18 1    
    32   15   16 1    
    33   15   17 2    
    34   18   19 1    
    35   18   46 1    
    36   18   47 1    
    37   19   20 2    
    38   19   21 1    
    39   21   22 1    
    40   21   48 1    
    41   21   49 1    
    42   22   50 1    
    43   22   23 1    
    44   22   51 1    
    45   23   52 1    
    46   23   24 1    
    47   23   53 1    
    48   24   25 1    
    49   24   26 am   BACKBONE|DICT|INTERRES
    50   26   28 1    
    51   26   27 2    
    52   28   55 1    
    53   28   29 1    
    54   28   54 1    
    55   29   30 1    
    56   29   56 1    
    57   29   57 1    
    58   30   58 1    
    59   30   31 1    
    60   30   59 1    
    61   31   32 1    
    62   31   60 1    
    63   31   61 1    
    64   32   33 1    
    65   32   62 1    
    66   32   63 1    
    67   33   34 1    
    68   33   64 1    
    69   33   65 1    
    70   34   68 1    
    71   34   66 1    
    72   34   67 1    
@<TRIPOS>SUBSTRUCTURE
     1 UNK         1 GROUP             0       ****    0 ROOT    
@<TRIPOS>MOLECULE
247_c1
98   103    1
SMALL
USER_CHARGES


@<TRIPOS>ATOM
      1 Fe1         1.9850    5.2981   -0.3408 Fe        1 UNK         0.0000 
      2 C2          1.5127    6.2697   -4.3362 C.3       1 UNK         0.0000 
      3 C3          2.0491    5.5381   -3.1150 C.2       1 UNK         0.0000 
      4 O4          2.7074    6.1570   -2.2580 O.co2     1 UNK         0.0000 
      5 N5          1.7388    4.2527   -2.8339 N.am      1 UNK         0.0000 
      6 O6          2.3412    3.6164   -1.8323 O.co2     1 UNK         0.0000 
      7 C7          0.5061    3.5908   -3.3522 C.3       1 UNK         0.0000 
      8 C8         -0.0651    2.3712   -2.5548 C.3       1 UNK         0.0000 
      9 C9         -1.4737    1.9345   -3.0390 C.3       1 UNK         0.0000 
     10 C10        -2.0112    0.5513   -2.5779 C.3       1 UNK         0.0000 
     11 H11        -2.7114    0.3117   -3.3828 H         1 UNK         0.0000 
     12 C12        -1.0344   -0.6256   -2.7431 C.2       1 UNK         0.0000 
     13 O13        -0.4175   -0.7252   -3.8014 O.2       1 UNK         0.0000 
     14 N14        -0.9524   -1.5321   -1.7676 N.am      1 UNK         0.0000 
     15 C15        -0.1690   -2.7611   -1.8884 C.3       1 UNK         0.0000 
     16 C16        -1.0204   -3.9166   -1.3556 C.2       1 UNK         0.0000 
     17 O17        -2.1226   -3.7007   -0.8535 O.2       1 UNK         0.0000 
     18 N18        -0.5020   -5.1489   -1.4690 N.am      1 UNK         0.0000 
     19 C19        -1.2231   -6.3655   -1.0843 C.3       1 UNK         0.0000 
     20 C20        -1.3208   -6.4977    0.4413 C.2       1 UNK         0.0000 
     21 O21        -2.3904   -6.8023    0.9572 O.2       1 UNK         0.0000 
     22 N22        -0.2109   -6.2672    1.1601 N.am      1 UNK         0.0000 
     23 C23        -0.2054   -6.3068    2.6257 C.3       1 UNK         0.0000 
     24 C24        -0.6327   -4.9543    3.2131 C.2       1 UNK         0.0000 
     25 O25        -1.2129   -4.9170    4.2945 O.2       1 UNK         0.0000 
     26 N26        -0.3510   -3.8473    2.5193 N.am      1 UNK         0.0000 
     27 C27        -0.7229   -2.5172    2.9699 C.3       1 UNK         0.0000 
     28 C28        -0.1310   -1.5048    1.9804 C.2       1 UNK         0.0000 
     29 O29         0.5255   -1.9026    1.0201 O.2       1 UNK         0.0000 
     30 N30        -0.3186   -0.1933    2.1636 N.am      1 UNK         0.0000 
     31 C31        -0.8729    0.4602    3.3518 C.3       1 UNK         0.0000 
     32 H32        -1.1456   -0.2972    4.0865 H         1 UNK         0.0000 
     33 C33         0.1724    1.3566    4.0663 C.3       1 UNK         0.0000 
     34 C34         0.9632    2.2008    3.0588 C.3       1 UNK         0.0000 
     35 C35         1.6719    3.4933    3.5499 C.3       1 UNK         0.0000 
     36 N36         2.2696    4.2983    2.4518 N.am      1 UNK         0.0000 
     37 O37         2.2814    3.7200    1.2486 O.co2     1 UNK         0.0000 
     38 C38         2.7025    5.5740    2.5745 C.2       1 UNK         0.0000 
     39 O39         3.0080    6.1470    1.5176 O.co2     1 UNK         0.0000 
     40 C40         2.7355    6.3048    3.9113 C.3       1 UNK         0.0000 
     41 C41        -2.2134    1.2019    3.1488 C.2       1 UNK         0.0000 
     42 O42        -2.9123    1.3219    4.1490 O.2       1 UNK         0.0000 
     43 N43        -2.6790    1.6962    1.9918 N.am      1 UNK         0.0000 
     44 C44        -2.2247    1.8744    0.6032 C.3       1 UNK         0.0000 
     45 H45        -1.1822    1.5866    0.4723 H         1 UNK         0.0000 
     46 C46        -3.1911    0.9851   -0.2395 C.2       1 UNK         0.0000 
     47 O47        -4.2956    0.7513    0.2508 O.2       1 UNK         0.0000 
     48 N48        -2.9675    0.4628   -1.4585 N.am      1 UNK         0.0000 
     49 C49        -2.4527    3.3782    0.2446 C.3       1 UNK         0.0000 
     50 C50        -2.0255    4.4126    1.3432 C.3       1 UNK         0.0000 
     51 C51        -1.8125    5.8845    0.8643 C.3       1 UNK         0.0000 
     52 N52        -0.5027    6.1452    0.2105 N.am      1 UNK         0.0000 
     53 O53        -0.0178    5.1119   -0.4655 O.co2     1 UNK         0.0000 
     54 C54         0.2551    7.2620    0.3443 C.2       1 UNK         0.0000 
     55 O55         1.3963    7.1677   -0.1334 O.co2     1 UNK         0.0000 
     56 C56        -0.1717    8.5165    1.1061 C.3       1 UNK         0.0000 
     57 H57         0.9592    7.1579   -4.0283 H         1 UNK         0.0000 
     58 H58         0.8708    5.6511   -4.9648 H         1 UNK         0.0000 
     59 H59         2.3647    6.5871   -4.9318 H         1 UNK         0.0000 
     60 H60         0.6855    3.2802   -4.3820 H         1 UNK         0.0000 
     61 H61        -0.3056    4.3213   -3.4172 H         1 UNK         0.0000 
     62 H62        -0.0978    2.5856   -1.4885 H         1 UNK         0.0000 
     63 H63         0.6426    1.5506   -2.6827 H         1 UNK         0.0000 
     64 H64        -1.4092    1.8670   -4.1281 H         1 UNK         0.0000 
     65 H65        -2.2244    2.7034   -2.8550 H         1 UNK         0.0000 
     66 H66        -1.5489   -1.4749   -0.9539 H         1 UNK         0.0000 
     67 H67         0.7546   -2.6784   -1.3185 H         1 UNK         0.0000 
     68 H68         0.1113   -2.9755   -2.9212 H         1 UNK         0.0000 
     69 H69         0.4084   -5.2526   -1.8868 H         1 UNK         0.0000 
     70 H70        -2.2222   -6.3716   -1.5254 H         1 UNK         0.0000 
     71 H71        -0.6969   -7.2363   -1.4741 H         1 UNK         0.0000 
     72 H72         0.6531   -6.0552    0.6916 H         1 UNK         0.0000 
     73 H73        -0.8614   -7.0929    3.0063 H         1 UNK         0.0000 
     74 H74         0.7982   -6.5364    2.9818 H         1 UNK         0.0000 
     75 H75         0.1402   -3.8817    1.6378 H         1 UNK         0.0000 
     76 H76        -0.3340   -2.3553    3.9763 H         1 UNK         0.0000 
     77 H77        -1.8090   -2.4219    2.9901 H         1 UNK         0.0000 
     78 H78         0.1095    0.4287    1.4937 H         1 UNK         0.0000 
     79 H79         0.8590    0.7265    4.6362 H         1 UNK         0.0000 
     80 H80        -0.3318    1.9898    4.7997 H         1 UNK         0.0000 
     81 H81         1.7224    1.5581    2.6113 H         1 UNK         0.0000 
     82 H82         0.2940    2.4891    2.2535 H         1 UNK         0.0000 
     83 H83         2.4427    3.2272    4.2788 H         1 UNK         0.0000 
     84 H84         0.9458    4.0772    4.1287 H         1 UNK         0.0000 
     85 H85         3.4452    5.8328    4.5853 H         1 UNK         0.0000 
     86 H86         1.7594    6.3224    4.3964 H         1 UNK         0.0000 
     87 H87         3.0532    7.3345    3.7642 H         1 UNK         0.0000 
     88 H88        -3.6557    1.9447    2.0535 H         1 UNK         0.0000 
     89 H89        -3.7367   -0.1397   -1.7120 H         1 UNK         0.0000 
     90 H90        -1.9701    3.5847   -0.7079 H         1 UNK         0.0000 
     91 H91        -3.5137    3.5466    0.0470 H         1 UNK         0.0000 
     92 H92        -2.7987    4.4054    2.1141 H         1 UNK         0.0000 
     93 H93        -1.1139    4.1012    1.8456 H         1 UNK         0.0000 
     94 H94        -1.9982    6.5414    1.7153 H         1 UNK         0.0000 
     95 H95        -2.6150    6.1389    0.1709 H         1 UNK         0.0000 
     96 H96         0.4191    8.6165    2.0167 H         1 UNK         0.0000 
     97 H97         0.0308    9.3925    0.4972 H         1 UNK         0.0000 
     98 H98        -1.2222    8.5593    1.3803 H         1 UNK         0.0000 
@<TRIPOS>BOND
     1    1    4 nc   
     2    1    6 nc   
     3    1   37 nc   
     4    1   39 nc   
     5    1   53 nc   
     6    1   55 nc   
     7    2   57 1    
     8    2    3 1    
     9    2   58 1    
    10    2   59 1    
    11    3    5 am   BACKBONE|DICT|INTERRES
    12    3    4 2    
    13    5    6 1    
    14    5    7 1    
    15    7   61 1    
    16    7    8 1    
    17    7   60 1    
    18    8   62 1    
    19    8    9 1    
    20    8   63 1    
    21    9   65 1    
    22    9   10 1    
    23    9   64 1    
    24   10   11 1    
    25   10   48 1    
    26   10   12 1    
    27   12   14 am   BACKBONE|DICT|INTERRES
    28   12   13 2    
    29   14   66 1    
    30   14   15 1    
    31   15   16 1    
    32   15   67 1    
    33   15   68 1    
    34   16   17 2    
    35   16   18 am   BACKBONE|DICT|INTERRES
    36   18   19 1    
    37   18   69 1    
    38   19   20 1    
    39   19   70 1    
    40   19   71 1    
    41   20   21 2    
    42   20   22 am   BACKBONE|DICT|INTERRES
    43   22   23 1    
    44   22   72 1    
    45   23   74 1    
    46   23   24 1    
    47   23   73 1    
    48   24   25 2    
    49   24   26 am   BACKBONE|DICT|INTERRES
    50   26   27 1    
    51   26   75 1    
    52   27   76 1    
    53   27   28 1    
    54   27   77 1    
    55   28   30 am   BACKBONE|DICT|INTERRES
    56   28   29 2    
    57   30   31 1    
    58   30   78 1    
    59   31   32 1    
    60   31   33 1    
    61   31   41 1    
    62   33   79 1    
    63   33   80 1    
    64   33   34 1    
    65   34   35 1    
    66   34   81 1    
    67   34   82 1    
    68   35   84 1    
    69   35   83 1    
    70   35   36 1    
    71   36   37 1    
    72   36   38 am   BACKBONE|DICT|INTERRES
    73   38   40 1    
    74   38   39 2    
    75   40   86 1    
    76   40   85 1    
    77   40   87 1    
    78   41   42 2    
    79   41   43 am   BACKBONE|DICT|INTERRES
    80   43   88 1    
    81   43   44 1    
    82   44   45 1    
    83   44   46 1    
    84   44   49 1    
    85   46   47 2    
    86   46   48 am   BACKBONE|DICT|INTERRES
    87   48   89 1    
    88   49   50 1    
    89   49   90 1    
    90   49   91 1    
    91   50   93 1    
    92   50   92 1    
    93   50   51 1    
    94   51   94 1    
    95   51   52 1    
    96   51   95 1    
    97   52   54 am   BACKBONE|DICT|INTERRES
    98   52   53 1    
    99   54   56 1    
   100   54   55 2    
   101   56   98 1    
   102   56   96 1    
   103   56   97 1    
@<TRIPOS>SUBSTRUCTURE
     1 UNK         1 GROUP             0       ****    0 ROOT    
@<TRIPOS>MOLECULE
253_c1
154   161    1
SMALL
USER_CHARGES


@<TRIPOS>ATOM
      1 Fe1         4.8124   -0.7008   -1.9303 Fe        1 UNK         0.0000 
      2 C2          4.0499    4.8251   -2.7640 C.ar      1 UNK         0.0000 
      3 C3          5.4279    4.7558   -2.9288 C.ar      1 UNK         0.0000 
      4 C4          6.0439    3.5106   -3.0081 C.ar      1 UNK         0.0000 
      5 C5          5.3218    2.3247   -2.9055 C.ar      1 UNK         0.0000 
      6 O6          6.0204    1.2528   -2.9695 O.co2     1 UNK         0.0000 
      7 C7          3.9057    2.3916   -2.7343 C.ar      1 UNK         0.0000 
      8 O8          3.1965    1.3418   -2.6020 O.co2     1 UNK         0.0000 
      9 C9          3.2659    3.6615   -2.6822 C.ar      1 UNK         0.0000 
     10 C10         1.7422    3.8121   -2.5681 C.2       1 UNK         0.0000 
     11 O11         0.9200    3.2031   -3.2646 O.2       1 UNK         0.0000 
     12 N12         1.3285    4.7969   -1.7447 N.am      1 UNK         0.0000 
     13 C13        -0.0809    5.1912   -1.6331 C.3       1 UNK         0.0000 
     14 H14        -0.6081    4.8998   -2.5429 H         1 UNK         0.0000 
     15 C15        -0.2052    6.7348   -1.5403 C.3       1 UNK         0.0000 
     16 C16         0.1538    7.4690   -2.8440 C.3       1 UNK         0.0000 
     17 C17        -0.2897    8.9369   -2.7978 C.3       1 UNK         0.0000 
     18 N18         0.1269    9.6882   -3.9929 N.pl3     1 UNK         0.0000 
     19 C19        -0.1713   10.9693   -4.2566 C.cat     1 UNK         0.0000 
     20 N20         0.2526   11.5253   -5.3928 N.pl3     1 UNK         0.0000 
     21 N21        -0.8866   11.6945   -3.3906 N.pl3     1 UNK         0.0000 
     22 H22        -1.2286   11.2868   -2.5309 H         1 UNK         0.0000 
     23 H23        -1.1268   12.6645   -3.5439 H         1 UNK         0.0000 
     24 C24        -0.8860    4.5164   -0.4963 C.2       1 UNK         0.0000 
     25 O25        -2.1144    4.4529   -0.6169 O.2       1 UNK         0.0000 
     26 N26        -0.2755    4.1035    0.6284 N.am      1 UNK         0.0000 
     27 C27        -1.0407    3.6113    1.8033 C.3       1 UNK         0.0000 
     28 H28        -1.8650    3.0259    1.4096 H         1 UNK         0.0000 
     29 C29        -1.7032    4.7500    2.6653 C.3       1 UNK         0.0000 
     30 H30        -2.1652    4.3023    3.5461 H         1 UNK         0.0000 
     31 O31        -2.7730    5.3450    1.9452 O.3       1 UNK         0.0000 
     32 C32        -0.7954    5.8813    3.1871 C.3       1 UNK         0.0000 
     33 C33        -0.1072    2.7458    2.6689 C.2       1 UNK         0.0000 
     34 O34         0.8695    3.2339    3.2353 O.2       1 UNK         0.0000 
     35 O35        -0.4644    1.4380    2.9134 O.3       1 UNK         0.0000 
     36 C36        -1.5932    0.7477    2.3784 C.3       1 UNK         0.0000 
     37 H37        -1.7363    1.0444    1.3383 H         1 UNK         0.0000 
     38 C38        -2.8037    1.1813    3.2594 C.3       1 UNK         0.0000 
     39 C39        -1.3166   -0.8045    2.3541 C.3       1 UNK         0.0000 
     40 H40        -0.3486   -0.9926    1.8908 H         1 UNK         0.0000 
     41 N41        -1.4337   -1.4859    3.6720 N.am      1 UNK         0.0000 
     42 C42        -0.5267   -1.6858    4.6425 C.2       1 UNK         0.0000 
     43 O43        -0.8615   -2.2738    5.6692 O.2       1 UNK         0.0000 
     44 C44         0.9333   -1.1557    4.5243 C.3       1 UNK         0.0000 
     45 H45         0.8539   -0.1115    4.2403 H         1 UNK         0.0000 
     46 C46         1.7457   -1.1764    5.8548 C.3       1 UNK         0.0000 
     47 C47         1.3602   -0.1034    6.8868 C.3       1 UNK         0.0000 
     48 C48         2.3226   -0.1016    8.0887 C.3       1 UNK         0.0000 
     49 N49         1.9043    0.8337    9.1506 N.pl3     1 UNK         0.0000 
     50 C50         1.3945    0.5369   10.3545 C.cat     1 UNK         0.0000 
     51 N51         1.2181   -0.7333   10.7277 N.pl3     1 UNK         0.0000 
     52 N52         1.0607    1.5273   11.1841 N.pl3     1 UNK         0.0000 
     53 H53         1.1988    2.5006   10.9439 H         1 UNK         0.0000 
     54 H54         0.6586    1.3569   12.0961 H         1 UNK         0.0000 
     55 N55         1.7510   -1.8828    3.5546 N.am      1 UNK         0.0000 
     56 C56         2.3936   -1.2837    2.5309 C.2       1 UNK         0.0000 
     57 O57         2.0164   -0.1588    2.1859 O.2       1 UNK         0.0000 
     58 C58         3.6106   -2.0366    1.9584 C.ar      1 UNK         0.0000 
     59 C59         4.5446   -1.4327    1.0599 C.ar      1 UNK         0.0000 
     60 O60         4.3331   -0.2578    0.5903 O.co2     1 UNK         0.0000 
     61 C61         5.6893   -2.1588    0.6400 C.ar      1 UNK         0.0000 
     62 O62         6.5694   -1.7132   -0.1864 O.co2     1 UNK         0.0000 
     63 C63         5.8825   -3.4604    1.0963 C.ar      1 UNK         0.0000 
     64 C64         4.9814   -4.0683    1.9645 C.ar      1 UNK         0.0000 
     65 C65         3.8614   -3.3632    2.3907 C.ar      1 UNK         0.0000 
     66 C66        -2.3676   -1.4799    1.4635 C.2       1 UNK         0.0000 
     67 O67        -3.4936   -1.0057    1.3002 O.2       1 UNK         0.0000 
     68 O68        -1.9963   -2.6757    0.9181 O.3       1 UNK         0.0000 
     69 C69        -2.9528   -3.3916    0.1164 C.3       1 UNK         0.0000 
     70 H70        -3.6015   -2.6667   -0.3820 H         1 UNK         0.0000 
     71 C71        -3.8410   -4.2380    1.0612 C.3       1 UNK         0.0000 
     72 C72        -2.2825   -4.2130   -1.0189 C.3       1 UNK         0.0000 
     73 H73        -1.6090   -3.5366   -1.5459 H         1 UNK         0.0000 
     74 C74        -3.3883   -4.5787   -2.0496 C.2       1 UNK         0.0000 
     75 O75        -3.6645   -5.9048   -2.1104 O.3       1 UNK         0.0000 
     76 O76        -4.0036   -3.7645   -2.6942 O.2       1 UNK         0.0000 
     77 N77        -1.4776   -5.3427   -0.5095 N.am      1 UNK         0.0000 
     78 C78        -0.7237   -6.2230   -1.1909 C.2       1 UNK         0.0000 
     79 O79        -0.1922   -7.1597   -0.5937 O.2       1 UNK         0.0000 
     80 C80        -0.5171   -6.0933   -2.7385 C.3       1 UNK         0.0000 
     81 H81        -1.0693   -5.2373   -3.1187 H         1 UNK         0.0000 
     82 C82        -0.9901   -7.3055   -3.5849 C.3       1 UNK         0.0000 
     83 C83        -0.4331   -8.6891   -3.1993 C.3       1 UNK         0.0000 
     84 C84        -0.9966   -9.7828   -4.1069 C.3       1 UNK         0.0000 
     85 N85        -0.4763  -11.1078   -3.7404 N.pl3     1 UNK         0.0000 
     86 C86        -0.8216  -12.2730   -4.3031 C.cat     1 UNK         0.0000 
     87 N87        -0.2787  -13.4069   -3.8580 N.pl3     1 UNK         0.0000 
     88 N88        -1.7049  -12.3049   -5.3049 N.pl3     1 UNK         0.0000 
     89 H89        -1.9928  -13.1611   -5.7612 H         1 UNK         0.0000 
     90 H90        -2.1243  -11.4516   -5.6484 H         1 UNK         0.0000 
     91 N91         0.8622   -5.7812   -3.0879 N.am      1 UNK         0.0000 
     92 C92         1.4559   -4.6282   -2.7415 C.2       1 UNK         0.0000 
     93 O93         0.7992   -3.7973   -2.1015 O.2       1 UNK         0.0000 
     94 C94         2.9175   -4.4589   -3.2117 C.ar      1 UNK         0.0000 
     95 C95         3.5972   -3.2105   -3.1074 C.ar      1 UNK         0.0000 
     96 O96         2.9987   -2.1952   -2.6090 O.co2     1 UNK         0.0000 
     97 C97         4.9508   -3.1125   -3.5431 C.ar      1 UNK         0.0000 
     98 O98         5.6616   -2.0575   -3.4626 O.co2     1 UNK         0.0000 
     99 C99         5.5826   -4.2369   -4.0715 C.ar      1 UNK         0.0000 
    100 C100        4.9245   -5.4572   -4.1897 C.ar      1 UNK         0.0000 
    101 C101        3.6060   -5.5663   -3.7614 C.ar      1 UNK         0.0000 
    102 H102        3.5933    5.7994   -2.7307 H         1 UNK         0.0000 
    103 H103        6.0398    5.6360   -3.0194 H         1 UNK         0.0000 
    104 H104        7.1163    3.4378   -3.1517 H         1 UNK         0.0000 
    105 H105        2.0239    5.1525   -1.1185 H         1 UNK         0.0000 
    106 H106        0.3946    7.1198   -0.7125 H         1 UNK         0.0000 
    107 H107       -1.2453    6.9878   -1.3011 H         1 UNK         0.0000 
    108 H108       -0.4091    6.9754   -3.6386 H         1 UNK         0.0000 
    109 H109        1.2099    7.3590   -3.0972 H         1 UNK         0.0000 
    110 H110        0.0231    9.4162   -1.8690 H         1 UNK         0.0000 
    111 H111       -1.3811    8.9524   -2.8155 H         1 UNK         0.0000 
    112 H112        0.6722    9.1258   -4.6395 H         1 UNK         0.0000 
    113 H113        0.7840   11.0021   -6.0767 H         1 UNK         0.0000 
    114 H114        0.0573   12.4888   -5.6358 H         1 UNK         0.0000 
    115 H115        0.7370    4.0797    0.6840 H         1 UNK         0.0000 
    116 H116       -2.8134    4.9146    1.0722 H         1 UNK         0.0000 
    117 H117       -0.2632    6.3790    2.3780 H         1 UNK         0.0000 
    118 H118       -1.3763    6.6319    3.7235 H         1 UNK         0.0000 
    119 H119       -0.0588    5.5048    3.8974 H         1 UNK         0.0000 
    120 H120       -3.0030    2.2470    3.1932 H         1 UNK         0.0000 
    121 H121       -3.7358    0.7026    2.9707 H         1 UNK         0.0000 
    122 H122       -2.6374    0.9543    4.3123 H         1 UNK         0.0000 
    123 H123       -2.3563   -1.8532    3.8706 H         1 UNK         0.0000 
    124 H124        1.6917   -2.1674    6.3091 H         1 UNK         0.0000 
    125 H125        2.8024   -1.0155    5.6235 H         1 UNK         0.0000 
    126 H126        1.4825    0.8448    6.3583 H         1 UNK         0.0000 
    127 H127        0.3136   -0.1593    7.1903 H         1 UNK         0.0000 
    128 H128        2.6100   -1.0972    8.4295 H         1 UNK         0.0000 
    129 H129        3.2502    0.3447    7.7260 H         1 UNK         0.0000 
    130 H130        2.0075    1.7971    8.8515 H         1 UNK         0.0000 
    131 H131        1.4599   -1.4918   10.1048 H         1 UNK         0.0000 
    132 H132        0.8511   -0.9991   11.6320 H         1 UNK         0.0000 
    133 H133        1.9440   -2.8535    3.7092 H         1 UNK         0.0000 
    134 H134        6.7480   -4.0156    0.7501 H         1 UNK         0.0000 
    135 H135        5.1785   -5.0654    2.3238 H         1 UNK         0.0000 
    136 H136        3.2172   -3.8671    3.0949 H         1 UNK         0.0000 
    137 H137       -3.2550   -4.9527    1.6394 H         1 UNK         0.0000 
    138 H138       -4.3757   -3.5994    1.7640 H         1 UNK         0.0000 
    139 H139       -4.5943   -4.7949    0.5051 H         1 UNK         0.0000 
    140 H140       -1.4303   -5.3929    0.4952 H         1 UNK         0.0000 
    141 H141       -2.0812   -7.3519   -3.5382 H         1 UNK         0.0000 
    142 H142       -0.7491   -7.1076   -4.6321 H         1 UNK         0.0000 
    143 H143        0.6588   -8.6785   -3.2309 H         1 UNK         0.0000 
    144 H144       -0.7223   -8.9236   -2.1752 H         1 UNK         0.0000 
    145 H145       -2.0814   -9.8000   -3.9937 H         1 UNK         0.0000 
    146 H146       -0.7781   -9.5578   -5.1517 H         1 UNK         0.0000 
    147 H147        0.1875  -11.0634   -2.9735 H         1 UNK         0.0000 
    148 H148        0.3938  -13.4167   -3.1017 H         1 UNK         0.0000 
    149 H149       -0.5129  -14.3131   -4.2432 H         1 UNK         0.0000 
    150 H150        1.4452   -6.4500   -3.5380 H         1 UNK         0.0000 
    151 H151        6.6187   -4.1481   -4.3880 H         1 UNK         0.0000 
    152 H152        5.4459   -6.2966   -4.6182 H         1 UNK         0.0000 
    153 H153        3.1422   -6.5324   -3.8792 H         1 UNK         0.0000 
    154 H154       -4.4220   -5.9450   -2.6967 H         1 UNK         0.0000 
@<TRIPOS>BOND
     1    1    6 nc   
     2    1    8 nc   
     3    1   60 nc   
     4    1   62 nc   
     5    1   96 nc   
     6    1   98 nc   
     7    2  102 1    
     8    2    9 ar   
     9    2    3 ar   
    10    3    4 ar   
    11    3  103 1    
    12    4    5 ar   
    13    4  104 1    
    14    5    7 ar   
    15    5    6 1    
    16    7    8 1    
    17    7    9 ar   
    18    9   10 1    
    19   10   12 am   BACKBONE|DICT|INTERRES
    20   10   11 2    
    21   12   13 1    
    22   12  105 1    
    23   13   14 1    
    24   13   15 1    
    25   13   24 1    
    26   15  107 1    
    27   15  106 1    
    28   15   16 1    
    29   16   17 1    
    30   16  108 1    
    31   16  109 1    
    32   17  111 1    
    33   17  110 1    
    34   17   18 1    
    35   18   19 ar   
    36   18  112 1    
    37   19   21 ar   
    38   19   20 ar   
    39   20  113 1    
    40   20  114 1    
    41   21   22 1    
    42   21   23 1    
    43   24   26 am   BACKBONE|DICT|INTERRES
    44   24   25 2    
    45   26  115 1    
    46   26   27 1    
    47   27   28 1    
    48   27   33 1    
    49   27   29 1    
    50   29   32 1    
    51   29   30 1    
    52   29   31 1    
    53   31  116 1    
    54   32  118 1    
    55   32  119 1    
    56   32  117 1    
    57   33   35 1    
    58   33   34 2    
    59   35   36 1    
    60   36   37 1    
    61   36   39 1    
    62   36   38 1    
    63   38  122 1    
    64   38  120 1    
    65   38  121 1    
    66   39   40 1    
    67   39   41 1    
    68   39   66 1    
    69   41  123 1    
    70   41   42 am   BACKBONE|DICT|INTERRES
    71   42   43 2    
    72   42   44 1    
    73   44   45 1    
    74   44   46 1    
    75   44   55 1    
    76   46  124 1    
    77   46   47 1    
    78   46  125 1    
    79   47  127 1    
    80   47   48 1    
    81   47  126 1    
    82   48  128 1    
    83   48   49 1    
    84   48  129 1    
    85   49   50 ar   
    86   49  130 1    
    87   50   51 ar   
    88   50   52 ar   
    89   51  132 1    
    90   51  131 1    
    91   52   54 1    
    92   52   53 1    
    93   55  133 1    
    94   55   56 am   BACKBONE|DICT|INTERRES
    95   56   57 2    
    96   56   58 1    
    97   58   65 ar   
    98   58   59 ar   
    99   59   60 1    
   100   59   61 ar   
   101   61   63 ar   
   102   61   62 1    
   103   63   64 ar   
   104   63  134 1    
   105   64  135 1    
   106   64   65 ar   
   107   65  136 1    
   108   66   67 2    
   109   66   68 1    
   110   68   69 1    
   111   69   70 1    
   112   69   71 1    
   113   69   72 1    
   114   71  137 1    
   115   71  138 1    
   116   71  139 1    
   117   72   73 1    
   118   72   77 1    
   119   72   74 1    
   120   74   75 1    
   121   74   76 2    
   122   75  154 1    
   123   77  140 1    
   124   77   78 am   BACKBONE|DICT|INTERRES
   125   78   79 2    
   126   78   80 1    
   127   80   81 1    
   128   80   82 1    
   129   80   91 1    
   130   82  141 1    
   131   82   83 1    
   132   82  142 1    
   133   83  144 1    
   134   83   84 1    
   135   83  143 1    
   136   84  145 1    
   137   84   85 1    
   138   84  146 1    
   139   85  147 1    
   140   85   86 ar   
   141   86   87 ar   
   142   86   88 ar   
   143   87  148 1    
   144   87  149 1    
   145   88   89 1    
   146   88   90 1    
   147   91   92 am   BACKBONE|DICT|INTERRES
   148   91  150 1    
   149   92   93 2    
   150   92   94 1    
   151   94   95 ar   
   152   94  101 ar   
   153   95   96 1    
   154   95   97 ar   
   155   97   98 1    
   156   97   99 ar   
   157   99  100 ar   
   158   99  151 1    
   159  100  101 ar   
   160  100  152 1    
   161  101  153 1    
@<TRIPOS>SUBSTRUCTURE
     1 UNK         1 GROUP             0       ****    0 ROOT    
@<TRIPOS>MOLECULE
256_c1
106   111    1
SMALL
USER_CHARGES


@<TRIPOS>ATOM
      1 Fe1        -0.7283   -3.7741    1.5739 Fe        1 UNK         0.0000 
      2 O2          0.3912   -3.6249    3.4414 O.co2     1 UNK         0.0000 
      3 N3          0.1846   -2.5640    4.2155 N.am      1 UNK         0.0000 
      4 C4          0.3311   -2.7259    5.6834 C.3       1 UNK         0.0000 
      5 C5          0.1641   -1.3846    6.4518 C.3       1 UNK         0.0000 
      6 C6         -0.9590   -0.5075    5.8743 C.3       1 UNK         0.0000 
      7 C7         -0.6720   -0.3055    4.3663 C.3       1 UNK         0.0000 
      8 H8          0.3804   -0.0222    4.2658 H         1 UNK         0.0000 
      9 C9         -0.7270   -1.7005    3.6828 C.2       1 UNK         0.0000 
     10 O10        -1.4007   -2.0864    2.7096 O.co2     1 UNK         0.0000 
     11 N11        -1.3091    0.7919    3.6101 N.am      1 UNK         0.0000 
     12 C12        -2.4155    1.4798    3.9458 C.2       1 UNK         0.0000 
     13 O13        -3.2106    1.1020    4.7985 O.2       1 UNK         0.0000 
     14 C14        -2.6171    2.8607    3.2666 C.3       1 UNK         0.0000 
     15 H15        -1.9560    3.5416    3.8036 H         1 UNK         0.0000 
     16 C16        -4.0421    3.4785    3.3605 C.3       1 UNK         0.0000 
     17 O17        -4.5031    3.8852    4.6359 O.3       1 UNK         0.0000 
     18 N18        -2.2370    2.8931    1.8428 N.am      1 UNK         0.0000 
     19 C19        -1.0571    3.3316    1.3813 C.2       1 UNK         0.0000 
     20 O20        -0.0859    3.5461    2.0968 O.2       1 UNK         0.0000 
     21 C21        -0.9424    3.6512   -0.1200 C.3       1 UNK         0.0000 
     22 H22        -1.8736    3.3506   -0.5899 H         1 UNK         0.0000 
     23 C23        -0.6964    5.1811   -0.3249 C.3       1 UNK         0.0000 
     24 C24        -1.8098    6.1470    0.1669 C.3       1 UNK         0.0000 
     25 C25        -1.4168    7.6385   -0.0030 C.3       1 UNK         0.0000 
     26 N26        -2.5312    8.5716    0.5036 N.4       1 UNK         0.0000 
     27 H27        -3.3964    8.4322   -0.0035 H         1 UNK         0.0000 
     28 H28        -2.2519    9.5373    0.3776 H         1 UNK         0.0000 
     29 H29        -2.7054    8.4329    1.4920 H         1 UNK         0.0000 
     30 N30         0.2152    2.9093   -0.6194 N.am      1 UNK         0.0000 
     31 C31         0.6070    2.2993   -1.7601 C.2       1 UNK         0.0000 
     32 O32         1.8039    2.0920   -1.8772 O.2       1 UNK         0.0000 
     33 C33        -0.2817    1.7985   -2.9602 C.3       1 UNK         0.0000 
     34 H34        -0.0197    2.4109   -3.8282 H         1 UNK         0.0000 
     35 N35        -1.7498    2.0164   -2.7088 N.4       1 UNK         0.0000 
     36 H36        -1.9267    1.8497   -1.7269 H         1 UNK         0.0000 
     37 H37        -2.1887    1.2491   -3.2039 H         1 UNK         0.0000 
     38 C38        -2.3351    3.3390   -3.2493 C.3       1 UNK         0.0000 
     39 C39        -0.0113    0.3070   -3.3305 C.3       1 UNK         0.0000 
     40 C40        -0.1400   -0.6633   -2.1301 C.3       1 UNK         0.0000 
     41 C41        -0.1271   -2.1827   -2.4562 C.3       1 UNK         0.0000 
     42 N42         0.0197   -2.9920   -1.2323 N.am      1 UNK         0.0000 
     43 O43        -0.8870   -2.6960   -0.2984 O.co2     1 UNK         0.0000 
     44 C44         1.0420   -3.8129   -0.8659 C.2       1 UNK         0.0000 
     45 O45         1.0153   -4.1252    0.3178 O.co2     1 UNK         0.0000 
     46 C46         2.0722   -4.5202   -1.7903 C.3       1 UNK         0.0000 
     47 H47         2.5420   -5.2801   -1.1663 H         1 UNK         0.0000 
     48 C48         3.2712   -3.6435   -2.2243 C.3       1 UNK         0.0000 
     49 O49         2.9572   -2.7150   -3.2388 O.3       1 UNK         0.0000 
     50 N50         1.4440   -5.1983   -2.9253 N.am      1 UNK         0.0000 
     51 C51         1.0375   -6.4759   -3.0268 C.2       1 UNK         0.0000 
     52 O52         0.4187   -6.8413   -4.0233 O.2       1 UNK         0.0000 
     53 C53         1.3739   -7.5396   -1.9249 C.3       1 UNK         0.0000 
     54 H54         2.4378   -7.4685   -1.6918 H         1 UNK         0.0000 
     55 N55         1.2303   -8.8842   -2.6048 N.4       1 UNK         0.0000 
     56 H56         1.7274   -8.8091   -3.4875 H         1 UNK         0.0000 
     57 H57         0.2476   -8.9615   -2.8460 H         1 UNK         0.0000 
     58 C58         1.7130  -10.1127   -1.8016 C.3       1 UNK         0.0000 
     59 C59         0.5372   -7.4286   -0.6108 C.3       1 UNK         0.0000 
     60 C60        -1.0119   -7.5152   -0.7563 C.3       1 UNK         0.0000 
     61 C61        -1.8209   -7.4117    0.5716 C.3       1 UNK         0.0000 
     62 N62        -1.8579   -6.0501    1.1403 N.am      1 UNK         0.0000 
     63 O63        -0.7524   -5.5565    1.6698 O.co2     1 UNK         0.0000 
     64 C64        -2.8990   -5.2182    1.0414 C.2       1 UNK         0.0000 
     65 O65        -2.5718   -4.0738    1.3898 O.co2     1 UNK         0.0000 
     66 H66        -0.3962   -3.4752    6.0164 H         1 UNK         0.0000 
     67 H67         1.3276   -3.1308    5.8773 H         1 UNK         0.0000 
     68 H68         1.1047   -0.8368    6.3837 H         1 UNK         0.0000 
     69 H69         0.0122   -1.5697    7.5170 H         1 UNK         0.0000 
     70 H70        -0.9825    0.4459    6.4075 H         1 UNK         0.0000 
     71 H71        -1.9325   -0.9756    6.0371 H         1 UNK         0.0000 
     72 H72        -0.7016    1.2391    2.9364 H         1 UNK         0.0000 
     73 H73        -4.0743    4.3773    2.7391 H         1 UNK         0.0000 
     74 H74        -4.7764    2.7809    2.9504 H         1 UNK         0.0000 
     75 H75        -3.7741    4.0760    5.2338 H         1 UNK         0.0000 
     76 H76        -2.9794    2.6369    1.2133 H         1 UNK         0.0000 
     77 H77         0.2298    5.4460    0.1948 H         1 UNK         0.0000 
     78 H78        -0.4858    5.3878   -1.3761 H         1 UNK         0.0000 
     79 H79        -2.7326    5.9430   -0.3812 H         1 UNK         0.0000 
     80 H80        -2.0318    5.9643    1.2218 H         1 UNK         0.0000 
     81 H81        -1.2610    7.9113   -1.0506 H         1 UNK         0.0000 
     82 H82        -0.5308    7.9115    0.5786 H         1 UNK         0.0000 
     83 H83         0.9786    2.9666    0.0503 H         1 UNK         0.0000 
     84 H84        -1.7550    4.1667   -2.8455 H         1 UNK         0.0000 
     85 H85        -2.2540    3.3125   -4.3377 H         1 UNK         0.0000 
     86 H86        -3.3798    3.4058   -2.9389 H         1 UNK         0.0000 
     87 H87         0.9948    0.2267   -3.7536 H         1 UNK         0.0000 
     88 H88        -0.6773   -0.0022   -4.1408 H         1 UNK         0.0000 
     89 H89        -1.0629   -0.4418   -1.5898 H         1 UNK         0.0000 
     90 H90         0.6786   -0.4690   -1.4324 H         1 UNK         0.0000 
     91 H91         0.6439   -2.3961   -3.1830 H         1 UNK         0.0000 
     92 H92        -1.0527   -2.4623   -2.9699 H         1 UNK         0.0000 
     93 H93         4.0739   -4.2868   -2.5951 H         1 UNK         0.0000 
     94 H94         3.7044   -3.1272   -1.3625 H         1 UNK         0.0000 
     95 H95         3.5558   -2.8502   -3.9809 H         1 UNK         0.0000 
     96 H96         1.2068   -4.5637   -3.6752 H         1 UNK         0.0000 
     97 H97         2.7430   -9.9397   -1.4904 H         1 UNK         0.0000 
     98 H98         1.6508  -10.9838   -2.4543 H         1 UNK         0.0000 
     99 H99         1.0583  -10.2355   -0.9400 H         1 UNK         0.0000 
    100 H100        0.8638   -8.1996    0.0930 H         1 UNK         0.0000 
    101 H101        0.8103   -6.5091   -0.1100 H         1 UNK         0.0000 
    102 H102       -1.2677   -8.4874   -1.1877 H         1 UNK         0.0000 
    103 H103       -1.3839   -6.7692   -1.4677 H         1 UNK         0.0000 
    104 H104       -2.8368   -7.7786    0.4033 H         1 UNK         0.0000 
    105 H105       -1.3954   -8.0855    1.3209 H         1 UNK         0.0000 
    106 H106       -3.8439   -5.6121    0.6317 H         1 UNK         0.0000 
@<TRIPOS>BOND
     1    1    2 nc   
     2    1   10 nc   
     3    1   43 nc   
     4    1   45 nc   
     5    1   63 nc   
     6    1   65 nc   
     7    2    3 1    
     8    3    4 1    
     9    3    9 am   BACKBONE|DICT|INTERRES
    10    4   67 1    
    11    4   66 1    
    12    4    5 1    
    13    5   69 1    
    14    5    6 1    
    15    5   68 1    
    16    6   71 1    
    17    6   70 1    
    18    6    7 1    
    19    7    8 1    
    20    7    9 1    
    21    7   11 1    
    22    9   10 2    
    23   11   12 am   BACKBONE|DICT|INTERRES
    24   11   72 1    
    25   12   13 2    
    26   12   14 1    
    27   14   16 1    
    28   14   15 1    
    29   14   18 1    
    30   16   17 1    
    31   16   73 1    
    32   16   74 1    
    33   17   75 1    
    34   18   19 am   BACKBONE|DICT|INTERRES
    35   18   76 1    
    36   19   20 2    
    37   19   21 1    
    38   21   22 1    
    39   21   23 1    
    40   21   30 1    
    41   23   24 1    
    42   23   77 1    
    43   23   78 1    
    44   24   80 1    
    45   24   25 1    
    46   24   79 1    
    47   25   26 1    
    48   25   82 1    
    49   25   81 1    
    50   26   29 1    
    51   26   27 1    
    52   26   28 1    
    53   30   83 1    
    54   30   31 am   BACKBONE|DICT|INTERRES
    55   31   32 2    
    56   31   33 1    
    57   33   34 1    
    58   33   35 1    
    59   33   39 1    
    60   35   36 1    
    61   35   37 1    
    62   35   38 1    
    63   38   86 1    
    64   38   84 1    
    65   38   85 1    
    66   39   40 1    
    67   39   87 1    
    68   39   88 1    
    69   40   89 1    
    70   40   90 1    
    71   40   41 1    
    72   41   42 1    
    73   41   91 1    
    74   41   92 1    
    75   42   44 am   BACKBONE|DICT|INTERRES
    76   42   43 1    
    77   44   45 2    
    78   44   46 1    
    79   46   47 1    
    80   46   48 1    
    81   46   50 1    
    82   48   94 1    
    83   48   49 1    
    84   48   93 1    
    85   49   95 1    
    86   50   51 am   BACKBONE|DICT|INTERRES
    87   50   96 1    
    88   51   53 1    
    89   51   52 2    
    90   53   54 1    
    91   53   59 1    
    92   53   55 1    
    93   55   58 1    
    94   55   56 1    
    95   55   57 1    
    96   58   97 1    
    97   58   99 1    
    98   58   98 1    
    99   59  101 1    
   100   59  100 1    
   101   59   60 1    
   102   60   61 1    
   103   60  102 1    
   104   60  103 1    
   105   61   62 1    
   106   61  105 1    
   107   61  104 1    
   108   62   63 1    
   109   62   64 am   BACKBONE|DICT|INTERRES
   110   64   65 2    
   111   64  106 1    
@<TRIPOS>SUBSTRUCTURE
     1 UNK         1 GROUP             0       ****    0 ROOT    
@<TRIPOS>MOLECULE
257_c1
99   104    1
SMALL
USER_CHARGES


@<TRIPOS>ATOM
      1 Fe1         0.0014    0.1740   -0.1752 Fe        1 UNK         0.0000 
      2 N2          8.0817   -4.1552   -8.3493 N.pl3     1 UNK         0.0000 
      3 C3          7.3030   -3.1179   -8.6832 C.cat     1 UNK         0.0000 
      4 N4          7.5183   -2.5006   -9.8431 N.pl3     1 UNK         0.0000 
      5 H5          8.2436   -2.7781  -10.4877 H         1 UNK         0.0000 
      6 H6          6.9522   -1.7233  -10.1555 H         1 UNK         0.0000 
      7 N7          6.3218   -2.7137   -7.8556 N.pl3     1 UNK         0.0000 
      8 C8          5.9317   -3.2990   -6.5524 C.3       1 UNK         0.0000 
      9 C9          4.6247   -2.6392   -6.0243 C.3       1 UNK         0.0000 
     10 C10         4.0744   -3.2796   -4.7300 C.3       1 UNK         0.0000 
     11 C11         2.6359   -2.7549   -4.3122 C.3       1 UNK         0.0000 
     12 H12         1.9967   -2.8421   -5.1989 H         1 UNK         0.0000 
     13 C13         1.8832   -3.6399   -3.2722 C.2       1 UNK         0.0000 
     14 O14         2.3345   -4.7598   -2.9967 O.2       1 UNK         0.0000 
     15 N15         0.7417   -3.1417   -2.7631 N.am      1 UNK         0.0000 
     16 C16        -0.1825   -3.8223   -1.8301 C.3       1 UNK         0.0000 
     17 H17         0.4075   -4.3744   -1.0953 H         1 UNK         0.0000 
     18 C18        -1.0153   -2.7963   -0.9361 C.2       1 UNK         0.0000 
     19 O19        -0.2743   -1.9672   -0.3117 O.co2     1 UNK         0.0000 
     20 O20        -2.1521   -3.2246   -0.6209 O.co2     1 UNK         0.0000 
     21 C21        -1.1657   -4.7896   -2.5864 C.3       1 UNK         0.0000 
     22 O22        -0.5545   -5.9581   -3.0975 O.3       1 UNK         0.0000 
     23 N23         2.6113   -1.3415   -3.9237 N.am      1 UNK         0.0000 
     24 C24         3.3452   -0.7534   -2.9684 C.2       1 UNK         0.0000 
     25 O25         4.3850   -1.2469   -2.5110 O.2       1 UNK         0.0000 
     26 C26         2.7841    0.5967   -2.5760 C.ar      1 UNK         0.0000 
     27 C27         2.1876    0.8214   -1.3035 C.ar      1 UNK         0.0000 
     28 O28         2.1770   -0.1049   -0.4281 O.co2     1 UNK         0.0000 
     29 C29         1.4891    2.0356   -1.0676 C.ar      1 UNK         0.0000 
     30 O30         0.7308    2.2079   -0.0595 O.co2     1 UNK         0.0000 
     31 C31         1.4686    3.0264   -2.0377 C.ar      1 UNK         0.0000 
     32 C32         2.0611    2.8182   -3.2738 C.ar      1 UNK         0.0000 
     33 C33         2.7015    1.6048   -3.5511 C.ar      1 UNK         0.0000 
     34 H34         7.9356   -4.6304   -7.4680 H         1 UNK         0.0000 
     35 H35         8.8335   -4.5018   -8.9254 H         1 UNK         0.0000 
     36 H36         5.7593   -1.8906   -8.0458 H         1 UNK         0.0000 
     37 H37         6.7532   -3.1227   -5.8537 H         1 UNK         0.0000 
     38 H38         5.8122   -4.3825   -6.6415 H         1 UNK         0.0000 
     39 H39         4.8056   -1.5789   -5.8245 H         1 UNK         0.0000 
     40 H40         3.8557   -2.6725   -6.8013 H         1 UNK         0.0000 
     41 H41         4.7908   -3.1413   -3.9183 H         1 UNK         0.0000 
     42 H42         4.0335   -4.3533   -4.8786 H         1 UNK         0.0000 
     43 H43         0.4618   -2.1823   -2.9451 H         1 UNK         0.0000 
     44 H44        -1.6797   -4.2549   -3.3828 H         1 UNK         0.0000 
     45 H45        -1.9321   -5.1762   -1.9233 H         1 UNK         0.0000 
     46 H46         0.0272   -6.2729   -2.3922 H         1 UNK         0.0000 
     47 H47         1.7377   -0.8447   -4.0698 H         1 UNK         0.0000 
     48 H48         0.8864    3.9177   -1.8531 H         1 UNK         0.0000 
     49 H49         1.9596    3.5685   -4.0356 H         1 UNK         0.0000 
     50 H50         3.0915    1.4075   -4.5469 H         1 UNK         0.0000 
     51 N51        -8.0643    8.3672    4.1643 N.pl3     1 UNK         0.0000 
     52 C52        -7.2912    8.6969    3.1242 C.cat     1 UNK         0.0000 
     53 N53        -7.5061    9.8565    2.5047 N.pl3     1 UNK         0.0000 
     54 H54        -8.2313   10.5026    2.7820 H         1 UNK         0.0000 
     55 H55        -6.9452   10.1644    1.7221 H         1 UNK         0.0000 
     56 N56        -6.3119    7.8656    2.7164 N.pl3     1 UNK         0.0000 
     57 C57        -5.9243    6.5603    3.2999 C.3       1 UNK         0.0000 
     58 C58        -4.6204    6.0283    2.6353 C.3       1 UNK         0.0000 
     59 C59        -4.0700    4.7350    3.2729 C.3       1 UNK         0.0000 
     60 C60        -2.6306    4.3180    2.7471 C.3       1 UNK         0.0000 
     61 H61        -1.9925    5.2056    2.8338 H         1 UNK         0.0000 
     62 C62        -1.8760    3.2786    3.6305 C.2       1 UNK         0.0000 
     63 O63        -2.3226    3.0077    4.7529 O.2       1 UNK         0.0000 
     64 N64        -0.7369    2.7668    3.1295 N.am      1 UNK         0.0000 
     65 C65         0.1919    1.8400    3.8134 C.3       1 UNK         0.0000 
     66 H66        -0.3951    1.1120    4.3770 H         1 UNK         0.0000 
     67 C67         1.0176    0.9318    2.7947 C.2       1 UNK         0.0000 
     68 O68         0.2720    0.3109    1.9669 O.co2     1 UNK         0.0000 
     69 O69         2.1457    0.6017    3.2348 O.co2     1 UNK         0.0000 
     70 C70         1.1818    2.6068    4.7657 C.3       1 UNK         0.0000 
     71 O71         0.5762    3.1345    5.9296 O.3       1 UNK         0.0000 
     72 N72        -2.6062    3.9311    1.3323 N.am      1 UNK         0.0000 
     73 C73        -3.3405    2.9748    0.7448 C.2       1 UNK         0.0000 
     74 O74        -4.3786    2.5161    1.2360 O.2       1 UNK         0.0000 
     75 C75        -2.7721    2.5826   -0.6059 C.ar      1 UNK         0.0000 
     76 C76        -2.1810    1.3072   -0.8280 C.ar      1 UNK         0.0000 
     77 O77        -2.1744    0.4323    0.0979 O.co2     1 UNK         0.0000 
     78 C78        -1.4781    1.0713   -2.0413 C.ar      1 UNK         0.0000 
     79 O79        -0.7234    0.0600   -2.2105 O.co2     1 UNK         0.0000 
     80 C80        -1.4501    2.0414   -3.0294 C.ar      1 UNK         0.0000 
     81 C81        -2.0363    3.2804   -2.8225 C.ar      1 UNK         0.0000 
     82 C82        -2.6829    3.5576   -1.6113 C.ar      1 UNK         0.0000 
     83 H83        -7.9183    7.4863    4.6407 H         1 UNK         0.0000 
     84 H84        -8.8162    8.9439    4.5116 H         1 UNK         0.0000 
     85 H85        -5.7527    8.0544    1.8911 H         1 UNK         0.0000 
     86 H86        -6.7479    5.8644    3.1262 H         1 UNK         0.0000 
     87 H87        -5.8008    6.6488    4.3824 H         1 UNK         0.0000 
     88 H88        -4.8049    5.8294    1.5752 H         1 UNK         0.0000 
     89 H89        -3.8500    6.8047    2.6659 H         1 UNK         0.0000 
     90 H90        -4.7846    3.9213    3.1337 H         1 UNK         0.0000 
     91 H91        -4.0280    4.8807    4.3473 H         1 UNK         0.0000 
     92 H92        -0.4603    2.9437    2.1678 H         1 UNK         0.0000 
     93 H93         1.6944    3.3947    4.2175 H         1 UNK         0.0000 
     94 H94         1.9491    1.9484    5.1578 H         1 UNK         0.0000 
     95 H95        -0.0083    2.4353    6.2534 H         1 UNK         0.0000 
     96 H96        -1.7343    4.0782    0.8355 H         1 UNK         0.0000 
     97 H97        -0.8637    1.8557   -3.9180 H         1 UNK         0.0000 
     98 H98        -1.9271    4.0393   -3.5733 H         1 UNK         0.0000 
     99 H99        -3.0708    4.5547   -1.4149 H         1 UNK         0.0000 
@<TRIPOS>BOND
     1    1   19 nc   
     2    1   28 nc   
     3    1   30 nc   
     4    1   68 nc   
     5    1   77 nc   
     6    1   79 nc   
     7    2   34 1    
     8    2    3 ar   
     9    2   35 1    
    10    3    7 ar   
    11    3    4 ar   
    12    4    5 1    
    13    4    6 1    
    14    7    8 1    
    15    7   36 1    
    16    8    9 1    
    17    8   37 1    
    18    8   38 1    
    19    9   39 1    
    20    9   10 1    
    21    9   40 1    
    22   10   11 1    
    23   10   41 1    
    24   10   42 1    
    25   11   12 1    
    26   11   23 1    
    27   11   13 1    
    28   13   15 am   BACKBONE|DICT|INTERRES
    29   13   14 2    
    30   15   16 1    
    31   15   43 1    
    32   16   17 1    
    33   16   18 1    
    34   16   21 1    
    35   18   19 1    
    36   18   20 2    
    37   21   45 1    
    38   21   22 1    
    39   21   44 1    
    40   22   46 1    
    41   23   24 am   BACKBONE|DICT|INTERRES
    42   23   47 1    
    43   24   26 1    
    44   24   25 2    
    45   26   27 ar   
    46   26   33 ar   
    47   27   29 ar   
    48   27   28 1    
    49   29   30 1    
    50   29   31 ar   
    51   31   48 1    
    52   31   32 ar   
    53   32   33 ar   
    54   32   49 1    
    55   33   50 1    
    56   51   84 1    
    57   51   83 1    
    58   51   52 ar   
    59   52   53 ar   
    60   52   56 ar   
    61   53   54 1    
    62   53   55 1    
    63   56   57 1    
    64   56   85 1    
    65   57   87 1    
    66   57   58 1    
    67   57   86 1    
    68   58   89 1    
    69   58   59 1    
    70   58   88 1    
    71   59   91 1    
    72   59   60 1    
    73   59   90 1    
    74   60   61 1    
    75   60   62 1    
    76   60   72 1    
    77   62   63 2    
    78   62   64 am   BACKBONE|DICT|INTERRES
    79   64   65 1    
    80   64   92 1    
    81   65   66 1    
    82   65   70 1    
    83   65   67 1    
    84   67   68 1    
    85   67   69 2    
    86   70   94 1    
    87   70   71 1    
    88   70   93 1    
    89   71   95 1    
    90   72   73 am   BACKBONE|DICT|INTERRES
    91   72   96 1    
    92   73   74 2    
    93   73   75 1    
    94   75   76 ar   
    95   75   82 ar   
    96   76   77 1    
    97   76   78 ar   
    98   78   79 1    
    99   78   80 ar   
   100   80   81 ar   
   101   80   97 1    
   102   81   82 ar   
   103   81   98 1    
   104   82   99 1    
@<TRIPOS>SUBSTRUCTURE
     1 UNK         1 GROUP             0       ****    0 ROOT    
@<TRIPOS>MOLECULE
258_A_c1
91   98    1
SMALL
USER_CHARGES


@<TRIPOS>ATOM
      1 Fe1        -1.4905   -1.5703   -3.0470 Fe        1 UNK         0.0000 
      2 C2          2.7278   -0.1134   -6.2785 C.ar      1 UNK         0.0000 
      3 C3          2.0900   -0.9211   -7.2035 C.ar      1 UNK         0.0000 
      4 C4          0.9158   -1.5688   -6.8420 C.ar      1 UNK         0.0000 
      5 C5          0.3619   -1.4073   -5.5652 C.ar      1 UNK         0.0000 
      6 O6         -0.7408   -2.0074   -5.3305 O.co2     1 UNK         0.0000 
      7 C7          1.0102   -0.5932   -4.6025 C.ar      1 UNK         0.0000 
      8 O8          0.4631   -0.4664   -3.4422 O.co2     1 UNK         0.0000 
      9 C9          2.2190    0.0715   -4.9691 C.ar      1 UNK         0.0000 
     10 C10         3.0189    1.0117   -4.0652 C.2       1 UNK         0.0000 
     11 O11         3.7837    1.8474   -4.5762 O.2       1 UNK         0.0000 
     12 N12         2.9962    0.8500   -2.7223 N.am      1 UNK         0.0000 
     13 C13         3.8968    1.6403   -1.8649 C.3       1 UNK         0.0000 
     14 C14         4.0630    1.2684   -0.3708 C.3       1 UNK         0.0000 
     15 C15         3.7391    2.4186    0.6249 C.3       1 UNK         0.0000 
     16 N16         2.3452    2.5450    1.1075 N.am      1 UNK         0.0000 
     17 C17         1.5398    3.5482    0.6498 C.2       1 UNK         0.0000 
     18 O18         1.9741    4.4488   -0.0793 O.2       1 UNK         0.0000 
     19 C19         0.0318    3.6369    1.0833 C.3       1 UNK         0.0000 
     20 H20        -0.2078    2.8126    1.7474 H         1 UNK         0.0000 
     21 C21        -0.1609    4.9453    1.9195 C.3       1 UNK         0.0000 
     22 H22         0.5920    4.9656    2.7133 H         1 UNK         0.0000 
     23 O23        -1.4042    4.9265    2.6060 O.3       1 UNK         0.0000 
     24 C24        -0.0808    6.2898    1.1686 C.3       1 UNK         0.0000 
     25 N25        -0.9304    3.4647   -0.0209 N.am      1 UNK         0.0000 
     26 C26        -0.9174    2.3560   -0.7878 C.2       1 UNK         0.0000 
     27 O27        -0.0229    1.5148   -0.6454 O.2       1 UNK         0.0000 
     28 C28        -2.0157    2.1737   -1.8277 C.ar      1 UNK         0.0000 
     29 C29        -2.5341    0.8886   -2.1126 C.ar      1 UNK         0.0000 
     30 O30        -2.2991   -0.0903   -1.3282 O.co2     1 UNK         0.0000 
     31 C31        -3.2356    0.6651   -3.3102 C.ar      1 UNK         0.0000 
     32 O32        -3.4464   -0.5145   -3.7497 O.co2     1 UNK         0.0000 
     33 C33        -3.6031    1.7424   -4.1061 C.ar      1 UNK         0.0000 
     34 C34        -3.2513    3.0426   -3.7396 C.ar      1 UNK         0.0000 
     35 C35        -2.4387    3.2566   -2.6231 C.ar      1 UNK         0.0000 
     36 C36         1.9841    1.5811    2.1682 C.3       1 UNK         0.0000 
     37 C37         1.4639    0.1838    1.7407 C.3       1 UNK         0.0000 
     38 C38         1.6968   -0.8644    2.8412 C.3       1 UNK         0.0000 
     39 N39         1.5004   -2.2383    2.3804 N.am      1 UNK         0.0000 
     40 C40         2.2517   -3.2798    2.7783 C.2       1 UNK         0.0000 
     41 O41         3.2278   -3.1491    3.5228 O.2       1 UNK         0.0000 
     42 C42         1.8362   -4.7268    2.3767 C.3       1 UNK         0.0000 
     43 H43         2.7654   -5.2462    2.1389 H         1 UNK         0.0000 
     44 C44         1.2126   -5.3430    3.6678 C.3       1 UNK         0.0000 
     45 H45         1.8230   -5.1076    4.5486 H         1 UNK         0.0000 
     46 O46         1.2106   -6.7576    3.5724 O.3       1 UNK         0.0000 
     47 C47        -0.2315   -4.8948    3.9648 C.3       1 UNK         0.0000 
     48 N48         0.9554   -4.9066    1.2197 N.am      1 UNK         0.0000 
     49 C49         1.1916   -4.4572   -0.0149 C.2       1 UNK         0.0000 
     50 O50         2.2435   -3.8653   -0.3046 O.2       1 UNK         0.0000 
     51 C51         0.1213   -4.8379   -1.0203 C.ar      1 UNK         0.0000 
     52 C52        -0.7009   -3.8675   -1.6390 C.ar      1 UNK         0.0000 
     53 O53        -0.5925   -2.6292   -1.3700 O.co2     1 UNK         0.0000 
     54 C54        -1.6576   -4.2683   -2.5911 C.ar      1 UNK         0.0000 
     55 O55        -2.3674   -3.4098   -3.2001 O.co2     1 UNK         0.0000 
     56 C56        -1.8043   -5.6154   -2.9154 C.ar      1 UNK         0.0000 
     57 C57        -1.0388   -6.5867   -2.2656 C.ar      1 UNK         0.0000 
     58 C58        -0.0912   -6.2009   -1.3146 C.ar      1 UNK         0.0000 
     59 H59         3.6306    0.3871   -6.5918 H         1 UNK         0.0000 
     60 H60         2.4842   -1.0452   -8.1974 H         1 UNK         0.0000 
     61 H61         0.4076   -2.2003   -7.5583 H         1 UNK         0.0000 
     62 H62         2.1697    0.3545   -2.3889 H         1 UNK         0.0000 
     63 H63         3.7156    2.7092   -1.9955 H         1 UNK         0.0000 
     64 H64         4.8885    1.4657   -2.2948 H         1 UNK         0.0000 
     65 H65         3.6033    0.3171   -0.1351 H         1 UNK         0.0000 
     66 H66         5.1244    1.0590   -0.2233 H         1 UNK         0.0000 
     67 H67         4.0674    3.3502    0.1591 H         1 UNK         0.0000 
     68 H68         4.3804    2.3217    1.4991 H         1 UNK         0.0000 
     69 H69        -1.4961    5.7334    3.1180 H         1 UNK         0.0000 
     70 H70        -0.7233    6.3003    0.2887 H         1 UNK         0.0000 
     71 H71         0.9353    6.4940    0.8339 H         1 UNK         0.0000 
     72 H72        -0.3623    7.1265    1.8053 H         1 UNK         0.0000 
     73 H73        -1.7034    4.0945   -0.0945 H         1 UNK         0.0000 
     74 H74        -4.1414    1.5517   -5.0255 H         1 UNK         0.0000 
     75 H75        -3.5714    3.8615   -4.3559 H         1 UNK         0.0000 
     76 H76        -2.1109    4.2574   -2.4016 H         1 UNK         0.0000 
     77 H77         1.2966    2.0172    2.8912 H         1 UNK         0.0000 
     78 H78         2.8949    1.4290    2.7459 H         1 UNK         0.0000 
     79 H79         0.3981    0.2332    1.5143 H         1 UNK         0.0000 
     80 H80         1.9091   -0.1698    0.8172 H         1 UNK         0.0000 
     81 H81         2.7158   -0.7391    3.2163 H         1 UNK         0.0000 
     82 H82         1.0534   -0.6570    3.6983 H         1 UNK         0.0000 
     83 H83         0.7721   -2.3908    1.6873 H         1 UNK         0.0000 
     84 H84         2.1254   -7.0501    3.5718 H         1 UNK         0.0000 
     85 H85        -0.8948   -5.1167    3.1262 H         1 UNK         0.0000 
     86 H86        -0.2773   -3.8177    4.1374 H         1 UNK         0.0000 
     87 H87        -0.6281   -5.3907    4.8477 H         1 UNK         0.0000 
     88 H88         0.1063   -5.4264    1.3649 H         1 UNK         0.0000 
     89 H89        -2.5247   -5.8887   -3.6744 H         1 UNK         0.0000 
     90 H90        -1.1961   -7.6246   -2.5143 H         1 UNK         0.0000 
     91 H91         0.4854   -6.9666   -0.8125 H         1 UNK         0.0000 
@<TRIPOS>BOND
     1    1    6 nc   
     2    1    8 nc   
     3    1   30 nc   
     4    1   32 nc   
     5    1   53 nc   
     6    1   55 nc   
     7    2    9 ar   
     8    2    3 ar   
     9    2   59 1    
    10    3    4 ar   
    11    3   60 1    
    12    4    5 ar   
    13    4   61 1    
    14    5    6 1    
    15    5    7 ar   
    16    7    8 1    
    17    7    9 ar   
    18    9   10 1    
    19   10   12 am   BACKBONE|DICT|INTERRES
    20   10   11 2    
    21   12   62 1    
    22   12   13 1    
    23   13   14 1    
    24   13   63 1    
    25   13   64 1    
    26   14   66 1    
    27   14   65 1    
    28   14   15 1    
    29   15   16 1    
    30   15   68 1    
    31   15   67 1    
    32   16   36 1    
    33   16   17 am   BACKBONE|DICT|INTERRES
    34   17   19 1    
    35   17   18 2    
    36   19   20 1    
    37   19   21 1    
    38   19   25 1    
    39   21   23 1    
    40   21   22 1    
    41   21   24 1    
    42   23   69 1    
    43   24   72 1    
    44   24   70 1    
    45   24   71 1    
    46   25   26 am   BACKBONE|DICT|INTERRES
    47   25   73 1    
    48   26   27 2    
    49   26   28 1    
    50   28   29 ar   
    51   28   35 ar   
    52   29   30 1    
    53   29   31 ar   
    54   31   32 1    
    55   31   33 ar   
    56   33   34 ar   
    57   33   74 1    
    58   34   35 ar   
    59   34   75 1    
    60   35   76 1    
    61   36   78 1    
    62   36   77 1    
    63   36   37 1    
    64   37   38 1    
    65   37   79 1    
    66   37   80 1    
    67   38   81 1    
    68   38   82 1    
    69   38   39 1    
    70   39   40 am   BACKBONE|DICT|INTERRES
    71   39   83 1    
    72   40   41 2    
    73   40   42 1    
    74   42   43 1    
    75   42   44 1    
    76   42   48 1    
    77   44   47 1    
    78   44   45 1    
    79   44   46 1    
    80   46   84 1    
    81   47   86 1    
    82   47   87 1    
    83   47   85 1    
    84   48   49 am   BACKBONE|DICT|INTERRES
    85   48   88 1    
    86   49   50 2    
    87   49   51 1    
    88   51   52 ar   
    89   51   58 ar   
    90   52   53 1    
    91   52   54 ar   
    92   54   55 1    
    93   54   56 ar   
    94   56   57 ar   
    95   56   89 1    
    96   57   58 ar   
    97   57   90 1    
    98   58   91 1    
@<TRIPOS>SUBSTRUCTURE
     1 UNK         1 GROUP             0       ****    0 ROOT    
@<TRIPOS>MOLECULE
258_c1
85   94    1
SMALL
USER_CHARGES


@<TRIPOS>ATOM
      1 Fe1         0.9240    2.4209    2.1472 Fe        1 UNK         0.0000 
      2 C2         -4.2641    2.7053    3.4688 C.ar      1 UNK         0.0000 
      3 C3         -3.8253    3.7675    4.2550 C.ar      1 UNK         0.0000 
      4 C4         -2.4651    4.0289    4.3588 C.ar      1 UNK         0.0000 
      5 C5         -1.5724    3.2324    3.6607 C.ar      1 UNK         0.0000 
      6 O6         -0.3457    3.5135    3.6830 O.co2     1 UNK         0.0000 
      7 C7         -1.9991    2.1708    2.8476 C.ar      1 UNK         0.0000 
      8 O8         -1.0801    1.6121    2.1705 O.co2     1 UNK         0.0000 
      9 C9         -3.3867    1.8754    2.7594 C.ar      1 UNK         0.0000 
     10 C10        -4.0247    0.7623    1.9369 C.2       1 UNK         0.0000 
     11 O11        -5.2370    0.8287    1.6494 O.2       1 UNK         0.0000 
     12 N12        -3.3409   -0.3636    1.6608 N.am      1 UNK         0.0000 
     13 C13        -4.0739   -1.5708    1.2175 C.3       1 UNK         0.0000 
     14 C14        -3.3042   -2.8609    0.8846 C.3       1 UNK         0.0000 
     15 C15        -2.8446   -2.9801   -0.5848 C.3       1 UNK         0.0000 
     16 N16        -1.4078   -2.7826   -0.7925 N.am      1 UNK         0.0000 
     17 C17        -0.4940   -3.7113   -0.3822 C.2       1 UNK         0.0000 
     18 O18        -0.8656   -4.8243    0.0170 O.2       1 UNK         0.0000 
     19 C19         1.0334   -3.3973   -0.4620 C.3       1 UNK         0.0000 
     20 H20         1.2549   -3.2061   -1.5115 H         1 UNK         0.0000 
     21 N21         1.3308   -2.2012    0.2544 N.2       1 UNK         0.0000 
     22 C22         2.1501   -2.4614    1.1918 C.2       1 UNK         0.0000 
     23 O23         2.5362   -3.7784    1.2232 O.3       1 UNK         0.0000 
     24 C24         1.9561   -4.4684    0.1399 C.3       1 UNK         0.0000 
     25 H25         1.4411   -5.3525    0.5235 H         1 UNK         0.0000 
     26 C26         3.0977   -4.8999   -0.7978 C.3       1 UNK         0.0000 
     27 C27         2.7087   -1.5639    2.2340 C.ar      1 UNK         0.0000 
     28 C28         2.4177   -0.1799    2.3165 C.ar      1 UNK         0.0000 
     29 O29         1.7016    0.4391    1.4658 O.co2     1 UNK         0.0000 
     30 C30         2.8834    0.5685    3.3989 C.ar      1 UNK         0.0000 
     31 O31         2.4976    1.7583    3.5180 O.co2     1 UNK         0.0000 
     32 C32         3.6874   -0.0038    4.3756 C.ar      1 UNK         0.0000 
     33 C33         4.0062   -1.3547    4.2919 C.ar      1 UNK         0.0000 
     34 C34         3.5172   -2.1284    3.2381 C.ar      1 UNK         0.0000 
     35 C35        -1.0762   -1.6040   -1.6150 C.3       1 UNK         0.0000 
     36 C36        -1.4551   -1.8260   -3.0975 C.3       1 UNK         0.0000 
     37 C37        -0.5984   -1.0415   -4.0966 C.3       1 UNK         0.0000 
     38 N38        -0.5468    0.3894   -3.8236 N.am      1 UNK         0.0000 
     39 C39        -0.0258    1.2983   -4.6612 C.2       1 UNK         0.0000 
     40 O40         0.4257    0.9810   -5.7684 O.2       1 UNK         0.0000 
     41 C41        -0.0782    2.7799   -4.2177 C.3       1 UNK         0.0000 
     42 H42        -1.1092    3.0844   -4.3804 H         1 UNK         0.0000 
     43 N43         0.1598    2.9475   -2.8102 N.2       1 UNK         0.0000 
     44 C44         1.0528    3.8479   -2.6754 C.2       1 UNK         0.0000 
     45 O45         1.5047    4.3615   -3.8697 O.3       1 UNK         0.0000 
     46 C46         0.9174    3.6806   -4.9498 C.3       1 UNK         0.0000 
     47 H47         1.7091    3.1346   -5.4743 H         1 UNK         0.0000 
     48 C48         0.2593    4.7087   -5.8840 C.3       1 UNK         0.0000 
     49 C49         1.6290    4.4567   -1.4518 C.ar      1 UNK         0.0000 
     50 C50         1.4586    3.9521   -0.1415 C.ar      1 UNK         0.0000 
     51 O51         0.9027    2.8529    0.2023 O.co2     1 UNK         0.0000 
     52 C52         1.9877    4.6463    0.9510 C.ar      1 UNK         0.0000 
     53 O53         1.7822    4.1064    2.0704 O.co2     1 UNK         0.0000 
     54 C54         2.7024    5.8209    0.8004 C.ar      1 UNK         0.0000 
     55 C55         2.9351    6.2999   -0.4877 C.ar      1 UNK         0.0000 
     56 C56         2.4006    5.6311   -1.5977 C.ar      1 UNK         0.0000 
     57 H57        -5.3277    2.5351    3.3932 H         1 UNK         0.0000 
     58 H58        -4.5424    4.3905    4.7700 H         1 UNK         0.0000 
     59 H59        -2.1002    4.8700    4.9255 H         1 UNK         0.0000 
     60 H60        -2.3274   -0.2843    1.7845 H         1 UNK         0.0000 
     61 H61        -4.7986   -1.8216    1.9988 H         1 UNK         0.0000 
     62 H62        -4.6986   -1.3111    0.3596 H         1 UNK         0.0000 
     63 H63        -3.9952   -3.6921    1.0532 H         1 UNK         0.0000 
     64 H64        -2.4977   -3.0094    1.5994 H         1 UNK         0.0000 
     65 H65        -3.4219   -2.3029   -1.2190 H         1 UNK         0.0000 
     66 H66        -3.0868   -3.9803   -0.9516 H         1 UNK         0.0000 
     67 H67         3.7918   -5.5681   -0.2890 H         1 UNK         0.0000 
     68 H68         2.7120   -5.4205   -1.6759 H         1 UNK         0.0000 
     69 H69         3.6612   -4.0332   -1.1408 H         1 UNK         0.0000 
     70 H70         4.0083    0.6077    5.2024 H         1 UNK         0.0000 
     71 H71         4.5948   -1.8019    5.0735 H         1 UNK         0.0000 
     72 H72         3.7458   -3.1825    3.2328 H         1 UNK         0.0000 
     73 H73        -0.0152   -1.3642   -1.5613 H         1 UNK         0.0000 
     74 H74        -1.5719   -0.7105   -1.2218 H         1 UNK         0.0000 
     75 H75        -2.5036   -1.5745   -3.2482 H         1 UNK         0.0000 
     76 H76        -1.3771   -2.8872   -3.3482 H         1 UNK         0.0000 
     77 H77         0.4261   -1.4135   -4.0545 H         1 UNK         0.0000 
     78 H78        -0.9711   -1.2093   -5.1101 H         1 UNK         0.0000 
     79 H79        -0.7161    0.7264   -2.8747 H         1 UNK         0.0000 
     80 H80         0.9952    5.3962   -6.3019 H         1 UNK         0.0000 
     81 H81        -0.2378    4.2051   -6.7162 H         1 UNK         0.0000 
     82 H82        -0.4861    5.2965   -5.3504 H         1 UNK         0.0000 
     83 H83         3.1034    6.2980    1.6731 H         1 UNK         0.0000 
     84 H84         3.5320    7.1884   -0.6177 H         1 UNK         0.0000 
     85 H85         2.5850    6.0595   -2.5718 H         1 UNK         0.0000 
@<TRIPOS>BOND
     1    1    6 nc   
     2    1    8 nc   
     3    1   29 nc   
     4    1   31 nc   
     5    1   51 nc   
     6    1   53 nc   
     7    2    3 ar   
     8    2    9 ar   
     9    2   57 1    
    10    3    4 ar   
    11    3   58 1    
    12    4   59 1    
    13    4    5 ar   
    14    5    6 1    
    15    5    7 ar   
    16    7    8 1    
    17    7    9 ar   
    18    9   10 1    
    19   10   11 2    
    20   10   12 am   BACKBONE|DICT|INTERRES
    21   12   60 1    
    22   12   13 1    
    23   13   61 1    
    24   13   14 1    
    25   13   62 1    
    26   14   64 1    
    27   14   15 1    
    28   14   63 1    
    29   15   16 1    
    30   15   65 1    
    31   15   66 1    
    32   16   17 am   BACKBONE|DICT|INTERRES
    33   16   35 1    
    34   17   18 2    
    35   17   19 1    
    36   19   20 1    
    37   19   24 1    
    38   19   21 1    
    39   21   22 2    
    40   22   23 1    
    41   22   27 1    
    42   23   24 1    
    43   24   25 1    
    44   24   26 1    
    45   26   67 1    
    46   26   68 1    
    47   26   69 1    
    48   27   28 ar   
    49   27   34 ar   
    50   28   30 ar   
    51   28   29 1    
    52   30   32 ar   
    53   30   31 1    
    54   32   33 ar   
    55   32   70 1    
    56   33   71 1    
    57   33   34 ar   
    58   34   72 1    
    59   35   73 1    
    60   35   74 1    
    61   35   36 1    
    62   36   37 1    
    63   36   75 1    
    64   36   76 1    
    65   37   77 1    
    66   37   38 1    
    67   37   78 1    
    68   38   79 1    
    69   38   39 am   BACKBONE|DICT|INTERRES
    70   39   41 1    
    71   39   40 2    
    72   41   42 1    
    73   41   43 1    
    74   41   46 1    
    75   43   44 2    
    76   44   49 1    
    77   44   45 1    
    78   45   46 1    
    79   46   47 1    
    80   46   48 1    
    81   48   82 1    
    82   48   80 1    
    83   48   81 1    
    84   49   50 ar   
    85   49   56 ar   
    86   50   51 1    
    87   50   52 ar   
    88   52   53 1    
    89   52   54 ar   
    90   54   83 1    
    91   54   55 ar   
    92   55   56 ar   
    93   55   84 1    
    94   56   85 1    
@<TRIPOS>SUBSTRUCTURE
     1 UNK         1 GROUP             0       ****    0 ROOT    
@<TRIPOS>MOLECULE
260_7101_c1
94   99    1
SMALL
USER_CHARGES


@<TRIPOS>ATOM
      1 Fe1        -0.0076    0.1330    0.0270 Fe        1 UNK         0.0000 
      2 O2          0.4844   -1.2281   -1.4858 O.co2     1 UNK         0.0000 
      3 C3         -0.3739   -1.5837   -2.3024 C.2       1 UNK         0.0000 
      4 C4         -0.0951   -2.5498   -3.4609 C.3       1 UNK         0.0000 
      5 C5          1.2367   -3.3282   -3.2909 C.3       1 UNK         0.0000 
      6 H6          2.0055   -2.5735   -3.0727 H         1 UNK         0.0000 
      7 C7          1.7327   -3.9964   -4.5925 C.3       1 UNK         0.0000 
      8 O8          1.2702   -4.1851   -2.1354 O.3       1 UNK         0.0000 
      9 C9          0.4904   -5.2828   -1.9639 C.2       1 UNK         0.0000 
     10 O10        -0.2903   -5.7251   -2.8018 O.2       1 UNK         0.0000 
     11 C11         0.7439   -5.9730   -0.6088 C.3       1 UNK         0.0000 
     12 H12         1.8230   -6.0119   -0.4196 H         1 UNK         0.0000 
     13 N13         0.3203   -7.4043   -0.8281 N.4       1 UNK         0.0000 
     14 H14        -0.6581   -7.4319   -1.0663 H         1 UNK         0.0000 
     15 H15         0.4920   -7.9553   -0.0036 H         1 UNK         0.0000 
     16 H16         0.8353   -7.7769   -1.6116 H         1 UNK         0.0000 
     17 C17         0.0130   -5.3072    0.5984 C.3       1 UNK         0.0000 
     18 C18         0.4726   -3.8755    0.9084 C.3       1 UNK         0.0000 
     19 C19        -0.2598   -3.0794    2.0368 C.3       1 UNK         0.0000 
     20 N20        -0.0387   -1.6110    1.9559 N.am      1 UNK         0.0000 
     21 O21         0.9613   -1.2221    1.1607 O.co2     1 UNK         0.0000 
     22 C22        -0.8393   -0.6460    2.4731 C.2       1 UNK         0.0000 
     23 O23        -0.6882    0.4405    1.9478 O.co2     1 UNK         0.0000 
     24 C24        -1.8962   -0.8092    3.5728 C.3       1 UNK         0.0000 
     25 C25        -1.6313    0.1176    4.7922 C.3       1 UNK         0.0000 
     26 H26        -2.5426    0.1217    5.3930 H         1 UNK         0.0000 
     27 C27        -0.5175   -0.4580    5.6736 C.3       1 UNK         0.0000 
     28 O28        -1.2371    1.4718    4.4806 O.3       1 UNK         0.0000 
     29 C29        -1.9639    2.5606    4.8604 C.2       1 UNK         0.0000 
     30 O30        -3.0637    2.5028    5.4010 O.2       1 UNK         0.0000 
     31 C31        -1.2009    3.8994    4.6715 C.3       1 UNK         0.0000 
     32 H32        -0.2052    3.7862    5.1065 H         1 UNK         0.0000 
     33 N33        -1.9198    4.8789    5.5687 N.4       1 UNK         0.0000 
     34 H34        -1.9788    4.4955    6.5044 H         1 UNK         0.0000 
     35 H35        -2.8630    4.9880    5.2166 H         1 UNK         0.0000 
     36 H36        -1.4474    5.7736    5.5740 H         1 UNK         0.0000 
     37 C37        -1.0744    4.4506    3.2216 C.3       1 UNK         0.0000 
     38 C38        -0.4460    3.4680    2.2365 C.3       1 UNK         0.0000 
     39 C39        -0.0215    3.9928    0.8445 C.3       1 UNK         0.0000 
     40 N40         0.3181    2.8679   -0.0403 N.am      1 UNK         0.0000 
     41 O41        -0.6583    2.0089   -0.2252 O.co2     1 UNK         0.0000 
     42 C42         1.5547    2.4613   -0.3503 C.2       1 UNK         0.0000 
     43 O43         1.6922    1.2349   -0.4659 O.co2     1 UNK         0.0000 
     44 C44         2.5625    3.4627   -0.8954 C.3       1 UNK         0.0000 
     45 C45         1.9957    4.1487   -2.1748 C.3       1 UNK         0.0000 
     46 H46         1.2137    4.8433   -1.8485 H         1 UNK         0.0000 
     47 C47         3.0681    4.9883   -2.8845 C.3       1 UNK         0.0000 
     48 O48         1.4270    3.1622   -3.0637 O.3       1 UNK         0.0000 
     49 C49         0.0754    3.1178   -3.3268 C.2       1 UNK         0.0000 
     50 O50        -0.6760    4.0730   -3.2219 O.2       1 UNK         0.0000 
     51 C51        -0.3971    1.7096   -3.7289 C.3       1 UNK         0.0000 
     52 H52        -0.0548    1.0261   -2.9548 H         1 UNK         0.0000 
     53 N53         0.4403    1.3727   -4.9324 N.4       1 UNK         0.0000 
     54 H54         1.4161    1.5059   -4.6963 H         1 UNK         0.0000 
     55 H55         0.2071    2.0112   -5.6749 H         1 UNK         0.0000 
     56 H56         0.2749    0.4340   -5.2500 H         1 UNK         0.0000 
     57 C57        -1.9329    1.5056   -3.9180 C.3       1 UNK         0.0000 
     58 C58        -2.4027    0.0467   -4.2374 C.3       1 UNK         0.0000 
     59 C59        -2.6891   -0.9102   -3.0468 C.3       1 UNK         0.0000 
     60 N60        -1.5831   -1.0380   -2.0746 N.am      1 UNK         0.0000 
     61 O61        -1.8000   -0.4287   -0.9268 O.co2     1 UNK         0.0000 
     62 H62        -0.9225   -3.2475   -3.5722 H         1 UNK         0.0000 
     63 H63        -0.0572   -1.9703   -4.3757 H         1 UNK         0.0000 
     64 H64         1.0753   -4.7926   -4.9331 H         1 UNK         0.0000 
     65 H65         2.7369   -4.4056   -4.4589 H         1 UNK         0.0000 
     66 H66         1.7901   -3.2564   -5.3915 H         1 UNK         0.0000 
     67 H67         0.1696   -5.9090    1.4988 H         1 UNK         0.0000 
     68 H68        -1.0624   -5.3049    0.4242 H         1 UNK         0.0000 
     69 H69         0.3449   -3.3093   -0.0082 H         1 UNK         0.0000 
     70 H70         1.5409   -3.8699    1.1462 H         1 UNK         0.0000 
     71 H71         0.0557   -3.4433    3.0164 H         1 UNK         0.0000 
     72 H72        -1.3364   -3.2811    1.9812 H         1 UNK         0.0000 
     73 H73        -2.0071   -1.8449    3.8819 H         1 UNK         0.0000 
     74 H74        -2.8651   -0.5481    3.1437 H         1 UNK         0.0000 
     75 H75        -0.4422    0.1103    6.6047 H         1 UNK         0.0000 
     76 H76        -0.7353   -1.4968    5.9370 H         1 UNK         0.0000 
     77 H77         0.4460   -0.4332    5.1529 H         1 UNK         0.0000 
     78 H78        -2.0576    4.7228    2.8451 H         1 UNK         0.0000 
     79 H79        -0.4823    5.3674    3.2332 H         1 UNK         0.0000 
     80 H80         0.4212    2.9670    2.6780 H         1 UNK         0.0000 
     81 H81        -1.2374    2.7369    2.0794 H         1 UNK         0.0000 
     82 H82         0.7848    4.7205    0.9471 H         1 UNK         0.0000 
     83 H83        -0.8312    4.5524    0.3716 H         1 UNK         0.0000 
     84 H84         2.8328    4.1975   -0.1336 H         1 UNK         0.0000 
     85 H85         3.4801    2.9271   -1.1333 H         1 UNK         0.0000 
     86 H86         3.8993    4.3734   -3.2393 H         1 UNK         0.0000 
     87 H87         3.4808    5.7345   -2.1972 H         1 UNK         0.0000 
     88 H88         2.6380    5.5367   -3.7259 H         1 UNK         0.0000 
     89 H89        -2.2755    2.1603   -4.7203 H         1 UNK         0.0000 
     90 H90        -2.4563    1.8415   -3.0188 H         1 UNK         0.0000 
     91 H91        -1.7375   -0.4410   -4.9461 H         1 UNK         0.0000 
     92 H92        -3.3526    0.1081   -4.7778 H         1 UNK         0.0000 
     93 H93        -2.9943   -1.9035   -3.3831 H         1 UNK         0.0000 
     94 H94        -3.5705   -0.5025   -2.5311 H         1 UNK         0.0000 
@<TRIPOS>BOND
     1    1    2 nc   
     2    1   21 nc   
     3    1   23 nc   
     4    1   41 nc   
     5    1   43 nc   
     6    1   61 nc   
     7    2    3 2    
     8    3   60 am   BACKBONE|DICT|INTERRES
     9    3    4 1    
    10    4    5 1    
    11    4   62 1    
    12    4   63 1    
    13    5    6 1    
    14    5    8 1    
    15    5    7 1    
    16    7   65 1    
    17    7   64 1    
    18    7   66 1    
    19    8    9 1    
    20    9   11 1    
    21    9   10 2    
    22   11   12 1    
    23   11   17 1    
    24   11   13 1    
    25   13   15 1    
    26   13   14 1    
    27   13   16 1    
    28   17   18 1    
    29   17   67 1    
    30   17   68 1    
    31   18   70 1    
    32   18   19 1    
    33   18   69 1    
    34   19   71 1    
    35   19   20 1    
    36   19   72 1    
    37   20   22 am   BACKBONE|DICT|INTERRES
    38   20   21 1    
    39   22   23 2    
    40   22   24 1    
    41   24   73 1    
    42   24   25 1    
    43   24   74 1    
    44   25   26 1    
    45   25   27 1    
    46   25   28 1    
    47   27   76 1    
    48   27   75 1    
    49   27   77 1    
    50   28   29 1    
    51   29   30 2    
    52   29   31 1    
    53   31   32 1    
    54   31   33 1    
    55   31   37 1    
    56   33   34 1    
    57   33   35 1    
    58   33   36 1    
    59   37   79 1    
    60   37   38 1    
    61   37   78 1    
    62   38   80 1    
    63   38   39 1    
    64   38   81 1    
    65   39   82 1    
    66   39   40 1    
    67   39   83 1    
    68   40   41 1    
    69   40   42 am   BACKBONE|DICT|INTERRES
    70   42   43 2    
    71   42   44 1    
    72   44   84 1    
    73   44   45 1    
    74   44   85 1    
    75   45   46 1    
    76   45   47 1    
    77   45   48 1    
    78   47   87 1    
    79   47   86 1    
    80   47   88 1    
    81   48   49 1    
    82   49   50 2    
    83   49   51 1    
    84   51   52 1    
    85   51   53 1    
    86   51   57 1    
    87   53   54 1    
    88   53   55 1    
    89   53   56 1    
    90   57   90 1    
    91   57   58 1    
    92   57   89 1    
    93   58   59 1    
    94   58   91 1    
    95   58   92 1    
    96   59   94 1    
    97   59   60 1    
    98   59   93 1    
    99   60   61 1    
@<TRIPOS>SUBSTRUCTURE
     1 UNK         1 GROUP             0       ****    0 ROOT    
@<TRIPOS>MOLECULE
260_c1
106   111    1
SMALL
USER_CHARGES


@<TRIPOS>ATOM
      1 Fe1         0.1579   -0.2249    0.0854 Fe        1 UNK         0.0000 
      2 O2         -0.6084    1.4957   -1.0360 O.co2     1 UNK         0.0000 
      3 C3          0.1718    1.9463   -1.8717 C.2       1 UNK         0.0000 
      4 C4         -0.2180    3.0873   -2.8011 C.3       1 UNK         0.0000 
      5 C5         -1.5591    3.7405   -2.3594 C.3       1 UNK         0.0000 
      6 H6         -2.2646    2.9174   -2.2704 H         1 UNK         0.0000 
      7 C7         -2.1782    4.6481   -3.4158 C.3       1 UNK         0.0000 
      8 O8         -1.6062    4.3342   -1.0527 O.3       1 UNK         0.0000 
      9 C9         -0.7740    5.3077   -0.5945 C.2       1 UNK         0.0000 
     10 O10         0.1686    5.7655   -1.2469 O.2       1 UNK         0.0000 
     11 C11        -1.1548    5.7702    0.8342 C.3       1 UNK         0.0000 
     12 H12        -2.2457    5.8245    0.8626 H         1 UNK         0.0000 
     13 N13        -0.5807    7.1204    1.0166 N.am      1 UNK         0.0000 
     14 C14        -1.2803    8.2332    1.2774 C.2       1 UNK         0.0000 
     15 O15        -2.5020    8.2510    1.3614 O.2       1 UNK         0.0000 
     16 C16        -0.4879    9.5184    1.4823 C.3       1 UNK         0.0000 
     17 C17        -0.6903    4.8297    1.9999 C.3       1 UNK         0.0000 
     18 C18        -1.1344    3.3532    1.8543 C.3       1 UNK         0.0000 
     19 C19        -0.7416    2.3076    2.9577 C.3       1 UNK         0.0000 
     20 N20        -0.7475    0.8831    2.5036 N.am      1 UNK         0.0000 
     21 O21        -1.4409    0.6765    1.3883 O.co2     1 UNK         0.0000 
     22 C22         0.1364   -0.0562    2.9218 C.2       1 UNK         0.0000 
     23 O23         0.5474   -0.8614    2.0807 O.co2     1 UNK         0.0000 
     24 C24         0.6134   -0.1544    4.3646 C.3       1 UNK         0.0000 
     25 C25        -0.0812   -1.3273    5.1124 C.3       1 UNK         0.0000 
     26 H26        -1.1458   -1.0914    5.1171 H         1 UNK         0.0000 
     27 C27         0.3365   -1.3790    6.5869 C.3       1 UNK         0.0000 
     28 O28        -0.0464   -2.6231    4.4847 O.3       1 UNK         0.0000 
     29 C29         1.0711   -3.4051    4.3529 C.2       1 UNK         0.0000 
     30 O30         2.2051   -3.0635    4.6948 O.2       1 UNK         0.0000 
     31 C31         0.7649   -4.7885    3.7443 C.3       1 UNK         0.0000 
     32 H32        -0.2607   -4.7970    3.3735 H         1 UNK         0.0000 
     33 N33         0.9279   -5.7612    4.8425 N.am      1 UNK         0.0000 
     34 C34         0.0043   -6.6557    5.2227 C.2       1 UNK         0.0000 
     35 O35        -1.1198   -6.7049    4.7360 O.2       1 UNK         0.0000 
     36 C36         0.3987   -7.6478    6.3084 C.3       1 UNK         0.0000 
     37 C37         1.6920   -5.1813    2.5618 C.3       1 UNK         0.0000 
     38 C38         1.6689   -4.2235    1.3614 C.3       1 UNK         0.0000 
     39 C39         0.3521   -4.2014    0.5163 C.3       1 UNK         0.0000 
     40 N40         0.1470   -2.9819   -0.3059 N.am      1 UNK         0.0000 
     41 O41         1.1756   -2.1382   -0.3416 O.co2     1 UNK         0.0000 
     42 C42        -1.0818   -2.6030   -0.7442 C.2       1 UNK         0.0000 
     43 O43        -1.3112   -1.3931   -0.8385 O.co2     1 UNK         0.0000 
     44 C44        -2.1248   -3.6139   -1.2093 C.3       1 UNK         0.0000 
     45 C45        -2.7990   -3.1892   -2.5460 C.3       1 UNK         0.0000 
     46 H46        -3.4911   -2.3946   -2.2754 H         1 UNK         0.0000 
     47 C47        -3.6905   -4.3149   -3.1021 C.3       1 UNK         0.0000 
     48 O48        -1.9435   -2.5252   -3.5114 O.3       1 UNK         0.0000 
     49 C49        -1.1861   -3.1464   -4.4705 C.2       1 UNK         0.0000 
     50 O50        -1.1854   -4.3660   -4.6496 O.2       1 UNK         0.0000 
     51 C51        -0.4833   -2.1233   -5.4106 C.3       1 UNK         0.0000 
     52 H52        -1.2345   -1.3649   -5.6364 H         1 UNK         0.0000 
     53 N53        -0.1852   -2.7177   -6.7399 N.am      1 UNK         0.0000 
     54 C54         0.7312   -3.6654   -7.0149 C.2       1 UNK         0.0000 
     55 O55         1.5022   -4.1215   -6.1822 O.2       1 UNK         0.0000 
     56 C56         0.8041   -4.1553   -8.4538 C.3       1 UNK         0.0000 
     57 C57         0.7601   -1.3618   -4.8313 C.3       1 UNK         0.0000 
     58 C58         0.5203   -0.5268   -3.5556 C.3       1 UNK         0.0000 
     59 C59         1.5982    0.5593   -3.2304 C.3       1 UNK         0.0000 
     60 N60         1.3424    1.2845   -1.9589 N.am      1 UNK         0.0000 
     61 O61         1.7746    0.6070   -0.9008 O.co2     1 UNK         0.0000 
     62 H62        -0.3098    2.6853   -3.8126 H         1 UNK         0.0000 
     63 H63         0.5966    3.8092   -2.8432 H         1 UNK         0.0000 
     64 H64        -3.1791    4.9513   -3.1075 H         1 UNK         0.0000 
     65 H65        -2.2787    4.1207   -4.3667 H         1 UNK         0.0000 
     66 H66        -1.5790    5.5433   -3.5773 H         1 UNK         0.0000 
     67 H67         0.4220    7.1797    0.9338 H         1 UNK         0.0000 
     68 H68        -0.7725   10.2490    0.7251 H         1 UNK         0.0000 
     69 H69        -0.7169    9.9333    2.4641 H         1 UNK         0.0000 
     70 H70         0.5882    9.3576    1.4203 H         1 UNK         0.0000 
     71 H71         0.3955    4.8765    2.0870 H         1 UNK         0.0000 
     72 H72        -1.0710    5.2459    2.9342 H         1 UNK         0.0000 
     73 H73        -0.7148    3.0070    0.9167 H         1 UNK         0.0000 
     74 H74        -2.2208    3.3332    1.7401 H         1 UNK         0.0000 
     75 H75        -1.3994    2.4364    3.8216 H         1 UNK         0.0000 
     76 H76         0.2559    2.5617    3.3248 H         1 UNK         0.0000 
     77 H77         1.6931   -0.3080    4.3325 H         1 UNK         0.0000 
     78 H78         0.4592    0.7880    4.8928 H         1 UNK         0.0000 
     79 H79         0.1345   -0.4242    7.0739 H         1 UNK         0.0000 
     80 H80         1.4024   -1.5837    6.6877 H         1 UNK         0.0000 
     81 H81        -0.2155   -2.1551    7.1169 H         1 UNK         0.0000 
     82 H82         1.8521   -5.8031    5.2434 H         1 UNK         0.0000 
     83 H83         1.4362   -7.5352    6.6232 H         1 UNK         0.0000 
     84 H84        -0.2441   -7.5103    7.1777 H         1 UNK         0.0000 
     85 H85         0.2605   -8.6643    5.9391 H         1 UNK         0.0000 
     86 H86         1.4480   -6.1843    2.2165 H         1 UNK         0.0000 
     87 H87         2.7208   -5.2571    2.9195 H         1 UNK         0.0000 
     88 H88         2.4798   -4.4813    0.6844 H         1 UNK         0.0000 
     89 H89         1.9183   -3.2305    1.7196 H         1 UNK         0.0000 
     90 H90         0.3211   -5.0921   -0.1148 H         1 UNK         0.0000 
     91 H91        -0.5075   -4.3322    1.1825 H         1 UNK         0.0000 
     92 H92        -1.6628   -4.5905   -1.3242 H         1 UNK         0.0000 
     93 H93        -2.8881   -3.7259   -0.4336 H         1 UNK         0.0000 
     94 H94        -4.4843   -4.5634   -2.3965 H         1 UNK         0.0000 
     95 H95        -3.1241   -5.2321   -3.2703 H         1 UNK         0.0000 
     96 H96        -4.1554   -4.0309   -4.0445 H         1 UNK         0.0000 
     97 H97        -0.7670   -2.3982   -7.4962 H         1 UNK         0.0000 
     98 H98         0.5436   -5.2132   -8.4880 H         1 UNK         0.0000 
     99 H99         1.8248   -4.0428   -8.8187 H         1 UNK         0.0000 
    100 H100        0.1346   -3.6074   -9.1165 H         1 UNK         0.0000 
    101 H101        1.5729   -2.0648   -4.6480 H         1 UNK         0.0000 
    102 H102        1.1390   -0.7056   -5.6155 H         1 UNK         0.0000 
    103 H103        0.4701   -1.2354   -2.7359 H         1 UNK         0.0000 
    104 H104       -0.4601   -0.0634   -3.6531 H         1 UNK         0.0000 
    105 H105        2.5782    0.0718   -3.2033 H         1 UNK         0.0000 
    106 H106        1.6834    1.2517   -4.0711 H         1 UNK         0.0000 
@<TRIPOS>BOND
     1    1    2 nc   
     2    1   21 nc   
     3    1   23 nc   
     4    1   41 nc   
     5    1   43 nc   
     6    1   61 nc   
     7    2    3 2    
     8    3    4 1    
     9    3   60 am   BACKBONE|DICT|INTERRES
    10    4    5 1    
    11    4   62 1    
    12    4   63 1    
    13    5    6 1    
    14    5    8 1    
    15    5    7 1    
    16    7   64 1    
    17    7   65 1    
    18    7   66 1    
    19    8    9 1    
    20    9   11 1    
    21    9   10 2    
    22   11   12 1    
    23   11   13 1    
    24   11   17 1    
    25   13   14 am   BACKBONE|DICT|INTERRES
    26   13   67 1    
    27   14   15 2    
    28   14   16 1    
    29   16   69 1    
    30   16   68 1    
    31   16   70 1    
    32   17   71 1    
    33   17   72 1    
    34   17   18 1    
    35   18   19 1    
    36   18   73 1    
    37   18   74 1    
    38   19   76 1    
    39   19   75 1    
    40   19   20 1    
    41   20   22 am   BACKBONE|DICT|INTERRES
    42   20   21 1    
    43   22   23 2    
    44   22   24 1    
    45   24   78 1    
    46   24   25 1    
    47   24   77 1    
    48   25   26 1    
    49   25   27 1    
    50   25   28 1    
    51   27   80 1    
    52   27   79 1    
    53   27   81 1    
    54   28   29 1    
    55   29   30 2    
    56   29   31 1    
    57   31   32 1    
    58   31   33 1    
    59   31   37 1    
    60   33   82 1    
    61   33   34 am   BACKBONE|DICT|INTERRES
    62   34   36 1    
    63   34   35 2    
    64   36   83 1    
    65   36   84 1    
    66   36   85 1    
    67   37   87 1    
    68   37   38 1    
    69   37   86 1    
    70   38   89 1    
    71   38   39 1    
    72   38   88 1    
    73   39   91 1    
    74   39   40 1    
    75   39   90 1    
    76   40   41 1    
    77   40   42 am   BACKBONE|DICT|INTERRES
    78   42   43 2    
    79   42   44 1    
    80   44   93 1    
    81   44   45 1    
    82   44   92 1    
    83   45   46 1    
    84   45   47 1    
    85   45   48 1    
    86   47   94 1    
    87   47   95 1    
    88   47   96 1    
    89   48   49 1    
    90   49   50 2    
    91   49   51 1    
    92   51   52 1    
    93   51   57 1    
    94   51   53 1    
    95   53   54 am   BACKBONE|DICT|INTERRES
    96   53   97 1    
    97   54   55 2    
    98   54   56 1    
    99   56   98 1    
   100   56   99 1    
   101   56  100 1    
   102   57  101 1    
   103   57   58 1    
   104   57  102 1    
   105   58   59 1    
   106   58  103 1    
   107   58  104 1    
   108   59  105 1    
   109   59   60 1    
   110   59  106 1    
   111   60   61 1    
@<TRIPOS>SUBSTRUCTURE
     1 UNK         1 GROUP             0       ****    0 ROOT    
@<TRIPOS>MOLECULE
263_A_c1
135   140    1
SMALL
USER_CHARGES


@<TRIPOS>ATOM
      1 Fe1        -1.6907    2.7561   -0.9955 Fe        1 UNK         0.0000 
      2 C2         -4.1951    3.0133   -4.4414 C.3       1 UNK         0.0000 
      3 C3         -3.4696    2.5356   -3.1887 C.2       1 UNK         0.0000 
      4 O4         -2.2642    2.2801   -3.2367 O.co2     1 UNK         0.0000 
      5 N5         -4.0154    2.4467   -1.9503 N.am      1 UNK         0.0000 
      6 O6         -3.3770    1.9971   -0.9644 O.co2     1 UNK         0.0000 
      7 C7         -5.3810    2.4149   -1.5565 C.3       1 UNK         0.0000 
      8 C8         -5.9327    2.5128   -0.0891 C.3       1 UNK         0.0000 
      9 C9         -5.2883    1.9210    1.2015 C.3       1 UNK         0.0000 
     10 C10        -4.9097    2.9710    2.2982 C.3       1 UNK         0.0000 
     11 H11        -5.0276    2.4977    3.2837 H         1 UNK         0.0000 
     12 C12        -3.3819    3.4275    2.3162 C.2       1 UNK         0.0000 
     13 O13        -2.5962    2.9550    1.4468 O.co2     1 UNK         0.0000 
     14 O14        -3.1765    4.3167    3.1681 O.co2     1 UNK         0.0000 
     15 N15        -5.7986    4.1744    2.3202 N.am      1 UNK         0.0000 
     16 C16        -7.1393    4.1479    2.2313 C.2       1 UNK         0.0000 
     17 O17        -7.8058    3.1284    2.3906 O.2       1 UNK         0.0000 
     18 C18        -7.9280    5.4083    1.8411 C.3       1 UNK         0.0000 
     19 H19        -8.9268    5.0707    1.5443 H         1 UNK         0.0000 
     20 C20        -8.1007    6.2831    3.1081 C.3       1 UNK         0.0000 
     21 O21        -6.9394    7.0727    3.3333 O.3       1 UNK         0.0000 
     22 N22        -7.4733    6.3403    0.7827 N.am      1 UNK         0.0000 
     23 C23        -7.4249    6.4311   -0.5671 C.2       1 UNK         0.0000 
     24 O24        -7.5625    7.5461   -1.0657 O.2       1 UNK         0.0000 
     25 C25        -7.0277    5.3136   -1.5851 C.3       1 UNK         0.0000 
     26 H26        -7.3527    5.7002   -2.5522 H         1 UNK         0.0000 
     27 C27        -5.4073    5.4215   -1.7021 C.3       1 UNK         0.0000 
     28 C28        -4.4205    5.3591   -0.4492 C.3       1 UNK         0.0000 
     29 C29        -3.0094    6.0505   -0.4397 C.3       1 UNK         0.0000 
     30 N30        -1.8837    5.3039   -1.0509 N.am      1 UNK         0.0000 
     31 O31        -1.2070    4.4511   -0.2648 O.co2     1 UNK         0.0000 
     32 C32        -1.5958    5.3418   -2.3604 C.2       1 UNK         0.0000 
     33 O33        -0.9729    4.3586   -2.7405 O.co2     1 UNK         0.0000 
     34 C34        -2.0917    6.4559   -3.2811 C.3       1 UNK         0.0000 
     35 N35        -7.9485    4.0935   -1.4762 N.am      1 UNK         0.0000 
     36 C36        -8.4275    2.9089   -2.0353 C.2       1 UNK         0.0000 
     37 O37        -9.3901    2.4475   -1.4339 O.2       1 UNK         0.0000 
     38 C38        -7.9095    1.9773   -3.2452 C.3       1 UNK         0.0000 
     39 H39        -7.1504    2.5109   -3.8076 H         1 UNK         0.0000 
     40 C40        -9.0008    1.7105   -4.3171 C.3       1 UNK         0.0000 
     41 O41       -10.0360    0.8538   -3.8593 O.3       1 UNK         0.0000 
     42 N42        -7.3648    0.6233   -2.8092 N.am      1 UNK         0.0000 
     43 C43        -6.3105   -0.0775   -3.3613 C.2       1 UNK         0.0000 
     44 O44        -5.9750    0.2049   -4.5081 O.2       1 UNK         0.0000 
     45 C45        -5.4580   -1.1985   -2.5634 C.3       1 UNK         0.0000 
     46 H46        -6.1919   -2.0052   -2.6217 H         1 UNK         0.0000 
     47 C47        -4.2307   -1.8615   -3.3168 C.3       1 UNK         0.0000 
     48 C48        -2.8685   -1.1353   -3.5080 C.2       1 UNK         0.0000 
     49 O49        -2.7979   -0.3207   -4.4309 O.2       1 UNK         0.0000 
     50 C50        -1.6350   -1.6647   -2.7062 C.3       1 UNK         0.0000 
     51 H51        -1.9966   -2.4573   -2.0673 H         1 UNK         0.0000 
     52 C52        -0.8488   -0.6501   -1.7749 C.3       1 UNK         0.0000 
     53 H53        -0.1452   -1.2866   -1.2279 H         1 UNK         0.0000 
     54 O54        -0.1065    0.3905   -2.3886 O.co2     1 UNK         0.0000 
     55 C55        -1.6053   -0.1133   -0.5374 C.2       1 UNK         0.0000 
     56 O56        -1.1744    0.9651   -0.0623 O.2       1 UNK         0.0000 
     57 N57        -2.7481   -0.6094    0.0103 N.am      1 UNK         0.0000 
     58 C58        -3.8108   -1.5978   -0.3372 C.3       1 UNK         0.0000 
     59 C59        -5.1673   -1.0887   -0.9911 C.3       1 UNK         0.0000 
     60 N60        -0.6449   -2.3018   -3.6147 N.3       1 UNK         0.0000 
     61 C61         0.1468   -3.3946   -3.0109 C.3       1 UNK         0.0000 
     62 C62         1.5508   -3.5926   -3.6070 C.2       1 UNK         0.0000 
     63 O63         1.9272   -3.0226   -4.6339 O.2       1 UNK         0.0000 
     64 C64         2.4741   -4.5576   -2.8440 C.3       1 UNK         0.0000 
     65 C65         3.8849   -4.6820   -3.4585 C.3       1 UNK         0.0000 
     66 C66         4.7530   -5.7793   -2.8215 C.3       1 UNK         0.0000 
     67 C67         6.1227   -5.8844   -3.5183 C.3       1 UNK         0.0000 
     68 C68         6.9461   -7.1246   -3.1348 C.3       1 UNK         0.0000 
     69 C69         7.4519   -7.1444   -1.6809 C.3       1 UNK         0.0000 
     70 C70         8.3773   -8.3476   -1.4342 C.3       1 UNK         0.0000 
     71 C71         8.9698   -8.4099   -0.0172 C.3       1 UNK         0.0000 
     72 C72         9.9271   -9.6050    0.1346 C.3       1 UNK         0.0000 
     73 C73        10.5693   -9.7088    1.5260 C.3       1 UNK         0.0000 
     74 C74        11.5340  -10.8986    1.6276 C.3       1 UNK         0.0000 
     75 H75        -3.6186    3.8317   -4.8700 H         1 UNK         0.0000 
     76 H76        -4.2545    2.2333   -5.2051 H         1 UNK         0.0000 
     77 H77        -5.1936    3.3917   -4.2747 H         1 UNK         0.0000 
     78 H78        -5.5494    1.4065   -1.7148 H         1 UNK         0.0000 
     79 H79        -5.9078    2.9982   -2.2791 H         1 UNK         0.0000 
     80 H80        -6.9361    2.1060   -0.0874 H         1 UNK         0.0000 
     81 H81        -6.0970    3.5559    0.0330 H         1 UNK         0.0000 
     82 H82        -6.0452    1.2847    1.6542 H         1 UNK         0.0000 
     83 H83        -4.4820    1.2232    1.0346 H         1 UNK         0.0000 
     84 H84        -5.2992    5.0557    2.3129 H         1 UNK         0.0000 
     85 H85        -8.2926    5.6681    3.9914 H         1 UNK         0.0000 
     86 H86        -8.9563    6.9580    3.0053 H         1 UNK         0.0000 
     87 H87        -6.6921    7.0204    4.2637 H         1 UNK         0.0000 
     88 H88        -7.3527    7.2434    1.2349 H         1 UNK         0.0000 
     89 H89        -5.0090    4.8792   -2.5510 H         1 UNK         0.0000 
     90 H90        -5.2548    6.4477   -2.0430 H         1 UNK         0.0000 
     91 H91        -4.1996    4.3432   -0.1711 H         1 UNK         0.0000 
     92 H92        -4.9418    5.7768    0.4079 H         1 UNK         0.0000 
     93 H93        -2.7338    6.1887    0.6095 H         1 UNK         0.0000 
     94 H94        -3.0790    7.0740   -0.8095 H         1 UNK         0.0000 
     95 H95        -1.5162    7.3532   -3.0681 H         1 UNK         0.0000 
     96 H96        -1.9530    6.1994   -4.3337 H         1 UNK         0.0000 
     97 H97        -3.1407    6.6919   -3.1211 H         1 UNK         0.0000 
     98 H98        -8.5295    4.2657   -0.6692 H         1 UNK         0.0000 
     99 H99        -9.4471    2.6508   -4.6452 H         1 UNK         0.0000 
    100 H100       -8.5542    1.2555   -5.2033 H         1 UNK         0.0000 
    101 H101      -10.7479    0.8325   -4.5062 H         1 UNK         0.0000 
    102 H102       -7.7783    0.3075   -1.9456 H         1 UNK         0.0000 
    103 H103       -4.5596   -2.1713   -4.3091 H         1 UNK         0.0000 
    104 H104       -3.9981   -2.7994   -2.8179 H         1 UNK         0.0000 
    105 H105       -2.9955   -0.0451    0.8132 H         1 UNK         0.0000 
    106 H106       -4.1004   -1.9752    0.6451 H         1 UNK         0.0000 
    107 H107       -3.4386   -2.5156   -0.7746 H         1 UNK         0.0000 
    108 H108       -5.9461   -1.6821   -0.5105 H         1 UNK         0.0000 
    109 H109       -5.3743   -0.1250   -0.5626 H         1 UNK         0.0000 
    110 H110       -0.0221   -1.5012   -3.7799 H         1 UNK         0.0000 
    111 H111       -0.4225   -4.3185   -3.0510 H         1 UNK         0.0000 
    112 H112        0.3243   -3.2047   -1.9535 H         1 UNK         0.0000 
    113 H113        2.5533   -4.2292   -1.8064 H         1 UNK         0.0000 
    114 H114        1.9931   -5.5355   -2.8385 H         1 UNK         0.0000 
    115 H115        4.3969   -3.7201   -3.3853 H         1 UNK         0.0000 
    116 H116        3.7887   -4.8869   -4.5270 H         1 UNK         0.0000 
    117 H117        4.8901   -5.5774   -1.7581 H         1 UNK         0.0000 
    118 H118        4.2305   -6.7347   -2.8919 H         1 UNK         0.0000 
    119 H119        6.7034   -4.9799   -3.3282 H         1 UNK         0.0000 
    120 H120        5.9672   -5.9117   -4.5984 H         1 UNK         0.0000 
    121 H121        6.3631   -8.0256   -3.3337 H         1 UNK         0.0000 
    122 H122        7.8059   -7.1766   -3.8052 H         1 UNK         0.0000 
    123 H123        6.6075   -7.1794   -0.9908 H         1 UNK         0.0000 
    124 H124        7.9896   -6.2190   -1.4666 H         1 UNK         0.0000 
    125 H125        9.1954   -8.3186   -2.1565 H         1 UNK         0.0000 
    126 H126        7.8285   -9.2697   -1.6350 H         1 UNK         0.0000 
    127 H127        8.1652   -8.4822    0.7169 H         1 UNK         0.0000 
    128 H128        9.5041   -7.4830    0.1995 H         1 UNK         0.0000 
    129 H129        9.3874  -10.5287   -0.0826 H         1 UNK         0.0000 
    130 H130       10.7152   -9.5300   -0.6171 H         1 UNK         0.0000 
    131 H131       11.1077   -8.7871    1.7535 H         1 UNK         0.0000 
    132 H132        9.7913   -9.8063    2.2851 H         1 UNK         0.0000 
    133 H133       11.0199  -11.8419    1.4386 H         1 UNK         0.0000 
    134 H134       11.9812  -10.9586    2.6199 H         1 UNK         0.0000 
    135 H135       12.3458  -10.8120    0.9041 H         1 UNK         0.0000 
@<TRIPOS>BOND
     1    1    4 nc   
     2    1    6 nc   
     3    1   13 nc   
     4    1   31 nc   
     5    1   33 nc   
     6    1   54 nc   
     7    2   77 1    
     8    2    3 1    
     9    2   75 1    
    10    2   76 1    
    11    3    4 2    
    12    3    5 am   BACKBONE|DICT|INTERRES
    13    5    7 1    
    14    5    6 1    
    15    7   78 1    
    16    7    8 1    
    17    7   79 1    
    18    8   80 1    
    19    8   81 1    
    20    8    9 1    
    21    9   82 1    
    22    9   10 1    
    23    9   83 1    
    24   10   15 1    
    25   10   11 1    
    26   10   12 1    
    27   12   14 2    
    28   12   13 1    
    29   15   84 1    
    30   15   16 am   BACKBONE|DICT|INTERRES
    31   16   17 2    
    32   16   18 1    
    33   18   19 1    
    34   18   20 1    
    35   18   22 1    
    36   20   21 1    
    37   20   85 1    
    38   20   86 1    
    39   21   87 1    
    40   22   88 1    
    41   22   23 am   BACKBONE|DICT|INTERRES
    42   23   24 2    
    43   23   25 1    
    44   25   26 1    
    45   25   35 1    
    46   25   27 1    
    47   27   28 1    
    48   27   89 1    
    49   27   90 1    
    50   28   29 1    
    51   28   91 1    
    52   28   92 1    
    53   29   93 1    
    54   29   30 1    
    55   29   94 1    
    56   30   31 1    
    57   30   32 am   BACKBONE|DICT|INTERRES
    58   32   34 1    
    59   32   33 2    
    60   34   97 1    
    61   34   95 1    
    62   34   96 1    
    63   35   98 1    
    64   35   36 am   BACKBONE|DICT|INTERRES
    65   36   37 2    
    66   36   38 1    
    67   38   39 1    
    68   38   42 1    
    69   38   40 1    
    70   40   41 1    
    71   40   99 1    
    72   40  100 1    
    73   41  101 1    
    74   42  102 1    
    75   42   43 am   BACKBONE|DICT|INTERRES
    76   43   45 1    
    77   43   44 2    
    78   45   46 1    
    79   45   59 1    
    80   45   47 1    
    81   47  104 1    
    82   47   48 1    
    83   47  103 1    
    84   48   50 1    
    85   48   49 2    
    86   50   51 1    
    87   50   52 1    
    88   50   60 1    
    89   52   53 1    
    90   52   55 1    
    91   52   54 1    
    92   55   57 am   BACKBONE|DICT|INTERRES
    93   55   56 2    
    94   57  105 1    
    95   57   58 1    
    96   58  106 1    
    97   58   59 1    
    98   58  107 1    
    99   59  108 1    
   100   59  109 1    
   101   60   61 1    
   102   60  110 1    
   103   61  111 1    
   104   61  112 1    
   105   61   62 1    
   106   62   64 1    
   107   62   63 2    
   108   64  113 1    
   109   64   65 1    
   110   64  114 1    
   111   65  115 1    
   112   65   66 1    
   113   65  116 1    
   114   66  117 1    
   115   66   67 1    
   116   66  118 1    
   117   67  119 1    
   118   67   68 1    
   119   67  120 1    
   120   68   69 1    
   121   68  121 1    
   122   68  122 1    
   123   69  124 1    
   124   69   70 1    
   125   69  123 1    
   126   70   71 1    
   127   70  125 1    
   128   70  126 1    
   129   71   72 1    
   130   71  128 1    
   131   71  127 1    
   132   72   73 1    
   133   72  129 1    
   134   72  130 1    
   135   73   74 1    
   136   73  131 1    
   137   73  132 1    
   138   74  134 1    
   139   74  133 1    
   140   74  135 1    
@<TRIPOS>SUBSTRUCTURE
     1 UNK         1 GROUP             0       ****    0 ROOT    
@<TRIPOS>MOLECULE
263_B_c1
140   145    1
SMALL
USER_CHARGES


@<TRIPOS>ATOM
      1 Fe1         3.7451   -3.3824   -2.1175 Fe        1 UNK         0.0000 
      2 C2          3.0960   -6.8773   -3.9334 C.3       1 UNK         0.0000 
      3 C3          2.9835   -5.3906   -3.6073 C.2       1 UNK         0.0000 
      4 O4          2.5746   -5.0081   -2.4981 O.co2     1 UNK         0.0000 
      5 N5          3.4867   -4.3993   -4.3938 N.am      1 UNK         0.0000 
      6 O6          3.1932   -3.1243   -4.1535 O.co2     1 UNK         0.0000 
      7 C7          4.6222   -4.5976   -5.3345 C.3       1 UNK         0.0000 
      8 C8          5.4409   -3.3300   -5.7817 C.3       1 UNK         0.0000 
      9 C9          6.5380   -2.7812   -4.8205 C.3       1 UNK         0.0000 
     10 C10         6.4855   -1.2663   -4.3993 C.3       1 UNK         0.0000 
     11 H11         6.4220   -0.6802   -5.3251 H         1 UNK         0.0000 
     12 C12         5.2424   -0.8262   -3.5300 C.2       1 UNK         0.0000 
     13 O13         4.9932   -1.5497   -2.5248 O.co2     1 UNK         0.0000 
     14 O14         4.8480    0.3362   -3.7373 O.co2     1 UNK         0.0000 
     15 N15         7.7144   -0.7610   -3.7212 N.am      1 UNK         0.0000 
     16 C16         8.1841   -1.2484   -2.5613 C.2       1 UNK         0.0000 
     17 O17         7.8871   -2.3570   -2.1200 O.2       1 UNK         0.0000 
     18 C18         9.0437   -0.3234   -1.6992 C.3       1 UNK         0.0000 
     19 H19         8.8635    0.6992   -2.0267 H         1 UNK         0.0000 
     20 C20        10.5359   -0.6715   -1.9506 C.3       1 UNK         0.0000 
     21 O21        11.4045    0.3858   -1.5928 O.3       1 UNK         0.0000 
     22 N22         8.5437   -0.4194   -0.3036 N.am      1 UNK         0.0000 
     23 C23         9.2008   -0.7319    0.8263 C.2       1 UNK         0.0000 
     24 O24        10.4220   -0.8462    0.8999 O.2       1 UNK         0.0000 
     25 C25         8.3780   -1.0266    2.1076 C.3       1 UNK         0.0000 
     26 H26         8.9700   -0.5850    2.9164 H         1 UNK         0.0000 
     27 C27         8.3921   -2.5760    2.3656 C.3       1 UNK         0.0000 
     28 C28         7.7521   -3.5007    1.3084 C.3       1 UNK         0.0000 
     29 C29         6.2183   -3.3863    1.1663 C.3       1 UNK         0.0000 
     30 N30         5.4862   -4.0066    0.0356 N.am      1 UNK         0.0000 
     31 O31         4.2105   -3.5894    0.0155 O.co2     1 UNK         0.0000 
     32 C32         6.0169   -4.7390   -0.9947 C.2       1 UNK         0.0000 
     33 O33         5.3500   -4.8078   -2.0325 O.co2     1 UNK         0.0000 
     34 C34         7.3316   -5.4965   -0.9178 C.3       1 UNK         0.0000 
     35 N35         7.0776   -0.3050    2.1849 N.am      1 UNK         0.0000 
     36 C36         6.1068   -0.5626    3.0907 C.2       1 UNK         0.0000 
     37 O37         6.0505   -1.5878    3.7620 O.2       1 UNK         0.0000 
     38 C38         5.0334    0.4986    3.4007 C.3       1 UNK         0.0000 
     39 H39         4.2012   -0.0378    3.8653 H         1 UNK         0.0000 
     40 C40         5.6077    1.4353    4.5024 C.3       1 UNK         0.0000 
     41 O41         6.6399    2.2754    4.0089 O.3       1 UNK         0.0000 
     42 N42         4.4507    1.1839    2.2186 N.am      1 UNK         0.0000 
     43 C43         3.6728    2.2830    2.2881 C.2       1 UNK         0.0000 
     44 O44         3.5013    2.9134    3.3305 O.2       1 UNK         0.0000 
     45 C45         2.9064    2.8075    1.0411 C.3       1 UNK         0.0000 
     46 H46         2.9642    3.8841    1.2319 H         1 UNK         0.0000 
     47 C47         1.3672    2.5396    1.1420 C.3       1 UNK         0.0000 
     48 C48         0.8458    1.1258    0.8474 C.2       1 UNK         0.0000 
     49 O49         1.1712    0.1772    1.5606 O.2       1 UNK         0.0000 
     50 C50        -0.0452    0.9878   -0.3960 C.3       1 UNK         0.0000 
     51 H51        -0.1331    1.9807   -0.8352 H         1 UNK         0.0000 
     52 C52         0.5204    0.0627   -1.5300 C.3       1 UNK         0.0000 
     53 H53        -0.0323   -0.8802   -1.5185 H         1 UNK         0.0000 
     54 O54         0.2401    0.6699   -2.8010 O.3       1 UNK         0.0000 
     55 C55         2.0063   -0.3655   -1.4545 C.2       1 UNK         0.0000 
     56 O56         2.2672   -1.5694   -1.4303 O.co2     1 UNK         0.0000 
     57 N57         3.0028    0.5402   -1.4476 N.am      1 UNK         0.0000 
     58 C58         2.9359    1.9949   -1.5425 C.3       1 UNK         0.0000 
     59 C59         3.6190    2.7094   -0.3570 C.3       1 UNK         0.0000 
     60 N60        -1.4160    0.5261   -0.0687 N.3       1 UNK         0.0000 
     61 C61        -2.2325    1.4469    0.7123 C.3       1 UNK         0.0000 
     62 C62        -3.7352    1.2560    0.4460 C.2       1 UNK         0.0000 
     63 O63        -4.1472    0.5709   -0.4956 O.2       1 UNK         0.0000 
     64 C64        -4.6861    2.0102    1.3728 C.3       1 UNK         0.0000 
     65 C65        -6.1437    2.0268    0.8857 C.3       1 UNK         0.0000 
     66 C66        -7.0521    2.7907    1.8502 C.3       1 UNK         0.0000 
     67 C67        -8.4419    3.0271    1.2495 C.3       1 UNK         0.0000 
     68 C68        -9.3830    3.7579    2.2173 C.3       1 UNK         0.0000 
     69 C69       -10.6374    4.2745    1.5473 C.2       1 UNK         0.0000 
     70 C70       -11.5532    3.5066    0.9307 C.2       1 UNK         0.0000 
     71 C71       -12.7822    4.0772    0.2565 C.3       1 UNK         0.0000 
     72 C72       -13.6561    3.0298   -0.4539 C.3       1 UNK         0.0000 
     73 C73       -14.8474    3.6475   -1.2163 C.3       1 UNK         0.0000 
     74 C74       -15.8525    4.4350   -0.3450 C.3       1 UNK         0.0000 
     75 C75       -16.5528    3.6168    0.7582 C.3       1 UNK         0.0000 
     76 C76       -17.4355    2.4826    0.2200 C.3       1 UNK         0.0000 
     77 H77         2.0930   -7.2874   -4.0479 H         1 UNK         0.0000 
     78 H78         3.5855   -7.3881   -3.1022 H         1 UNK         0.0000 
     79 H79         3.6549   -7.0819   -4.8439 H         1 UNK         0.0000 
     80 H80         4.1989   -5.0704   -6.2250 H         1 UNK         0.0000 
     81 H81         5.3352   -5.3277   -4.9312 H         1 UNK         0.0000 
     82 H82         4.7761   -2.5365   -6.1306 H         1 UNK         0.0000 
     83 H83         5.9660   -3.6321   -6.6831 H         1 UNK         0.0000 
     84 H84         7.4886   -2.9003   -5.3266 H         1 UNK         0.0000 
     85 H85         6.6273   -3.4171   -3.9496 H         1 UNK         0.0000 
     86 H86         7.9514    0.1987   -3.9449 H         1 UNK         0.0000 
     87 H87        10.8316   -1.6102   -1.4781 H         1 UNK         0.0000 
     88 H88        10.6841   -0.8267   -3.0196 H         1 UNK         0.0000 
     89 H89        11.8632    0.1076   -0.7885 H         1 UNK         0.0000 
     90 H90         7.5368   -0.3902   -0.2471 H         1 UNK         0.0000 
     91 H91         8.0489   -2.8269    3.3681 H         1 UNK         0.0000 
     92 H92         9.4403   -2.8692    2.4142 H         1 UNK         0.0000 
     93 H93         8.2319   -3.3048    0.3572 H         1 UNK         0.0000 
     94 H94         7.9827   -4.5198    1.5988 H         1 UNK         0.0000 
     95 H95         5.7501   -3.6695    2.1103 H         1 UNK         0.0000 
     96 H96         6.0138   -2.3277    1.0566 H         1 UNK         0.0000 
     97 H97         8.1911   -4.8718   -1.1536 H         1 UNK         0.0000 
     98 H98         7.4558   -5.9539    0.0578 H         1 UNK         0.0000 
     99 H99         7.3296   -6.3085   -1.6431 H         1 UNK         0.0000 
    100 H100        7.0813    0.6234    1.7873 H         1 UNK         0.0000 
    101 H101        4.8546    2.0218    5.0262 H         1 UNK         0.0000 
    102 H102        6.0314    0.8160    5.2957 H         1 UNK         0.0000 
    103 H103        6.7328    3.0043    4.6317 H         1 UNK         0.0000 
    104 H104        4.4337    0.6355    1.3710 H         1 UNK         0.0000 
    105 H105        0.8485    3.2457    0.4990 H         1 UNK         0.0000 
    106 H106        1.0260    2.7757    2.1533 H         1 UNK         0.0000 
    107 H107        1.0548    0.7307   -3.3174 H         1 UNK         0.0000 
    108 H108        3.9355    0.1557   -1.6069 H         1 UNK         0.0000 
    109 H109        1.9173    2.3680   -1.6644 H         1 UNK         0.0000 
    110 H110        3.4466    2.2850   -2.4644 H         1 UNK         0.0000 
    111 H111        4.6407    2.3429   -0.2461 H         1 UNK         0.0000 
    112 H112        3.7538    3.7296   -0.7108 H         1 UNK         0.0000 
    113 H113       -1.9237    0.3331   -0.9334 H         1 UNK         0.0000 
    114 H114       -2.0276    1.3218    1.7770 H         1 UNK         0.0000 
    115 H115       -1.9908    2.4783    0.4493 H         1 UNK         0.0000 
    116 H116       -4.6248    1.5458    2.3564 H         1 UNK         0.0000 
    117 H117       -4.3276    3.0336    1.4749 H         1 UNK         0.0000 
    118 H118       -6.1816    2.4834   -0.1065 H         1 UNK         0.0000 
    119 H119       -6.5161    1.0064    0.7650 H         1 UNK         0.0000 
    120 H120       -6.6032    3.7572    2.0920 H         1 UNK         0.0000 
    121 H121       -7.1307    2.2348    2.7875 H         1 UNK         0.0000 
    122 H122       -8.3343    3.6175    0.3360 H         1 UNK         0.0000 
    123 H123       -8.8903    2.0767    0.9490 H         1 UNK         0.0000 
    124 H124       -9.6708    3.0899    3.0312 H         1 UNK         0.0000 
    125 H125       -8.8749    4.6134    2.6668 H         1 UNK         0.0000 
    126 H126      -10.7856    5.3448    1.5695 H         1 UNK         0.0000 
    127 H127      -11.4173    2.4337    0.9005 H         1 UNK         0.0000 
    128 H128      -12.4519    4.8296   -0.4628 H         1 UNK         0.0000 
    129 H129      -13.3593    4.5878    1.0291 H         1 UNK         0.0000 
    130 H130      -14.0125    2.2930    0.2687 H         1 UNK         0.0000 
    131 H131      -13.0406    2.4768   -1.1651 H         1 UNK         0.0000 
    132 H132      -14.4610    4.3154   -1.9880 H         1 UNK         0.0000 
    133 H133      -15.3740    2.8593   -1.7561 H         1 UNK         0.0000 
    134 H134      -15.3446    5.2834    0.1150 H         1 UNK         0.0000 
    135 H135      -16.6111    4.8750   -0.9941 H         1 UNK         0.0000 
    136 H136      -17.1748    4.2912    1.3478 H         1 UNK         0.0000 
    137 H137      -15.8161    3.2088    1.4524 H         1 UNK         0.0000 
    138 H138      -17.9595    1.9864    1.0365 H         1 UNK         0.0000 
    139 H139      -16.8440    1.7272   -0.2992 H         1 UNK         0.0000 
    140 H140      -18.1842    2.8652   -0.4754 H         1 UNK         0.0000 
@<TRIPOS>BOND
     1    1    4 nc   
     2    1    6 nc   
     3    1   13 nc   
     4    1   31 nc   
     5    1   33 nc   
     6    1   56 nc   
     7    2   78 1    
     8    2    3 1    
     9    2   77 1    
    10    2   79 1    
    11    3    4 2    
    12    3    5 am   BACKBONE|DICT|INTERRES
    13    5    6 1    
    14    5    7 1    
    15    7   81 1    
    16    7    8 1    
    17    7   80 1    
    18    8    9 1    
    19    8   82 1    
    20    8   83 1    
    21    9   10 1    
    22    9   85 1    
    23    9   84 1    
    24   10   11 1    
    25   10   15 1    
    26   10   12 1    
    27   12   13 1    
    28   12   14 2    
    29   15   16 am   BACKBONE|DICT|INTERRES
    30   15   86 1    
    31   16   17 2    
    32   16   18 1    
    33   18   19 1    
    34   18   22 1    
    35   18   20 1    
    36   20   87 1    
    37   20   21 1    
    38   20   88 1    
    39   21   89 1    
    40   22   90 1    
    41   22   23 am   BACKBONE|DICT|INTERRES
    42   23   25 1    
    43   23   24 2    
    44   25   35 1    
    45   25   27 1    
    46   25   26 1    
    47   27   92 1    
    48   27   91 1    
    49   27   28 1    
    50   28   94 1    
    51   28   29 1    
    52   28   93 1    
    53   29   95 1    
    54   29   30 1    
    55   29   96 1    
    56   30   31 1    
    57   30   32 am   BACKBONE|DICT|INTERRES
    58   32   34 1    
    59   32   33 2    
    60   34   98 1    
    61   34   97 1    
    62   34   99 1    
    63   35   36 am   BACKBONE|DICT|INTERRES
    64   35  100 1    
    65   36   38 1    
    66   36   37 2    
    67   38   39 1    
    68   38   40 1    
    69   38   42 1    
    70   40  101 1    
    71   40  102 1    
    72   40   41 1    
    73   41  103 1    
    74   42   43 am   BACKBONE|DICT|INTERRES
    75   42  104 1    
    76   43   44 2    
    77   43   45 1    
    78   45   47 1    
    79   45   46 1    
    80   45   59 1    
    81   47  106 1    
    82   47   48 1    
    83   47  105 1    
    84   48   49 2    
    85   48   50 1    
    86   50   51 1    
    87   50   60 1    
    88   50   52 1    
    89   52   55 1    
    90   52   53 1    
    91   52   54 1    
    92   54  107 1    
    93   55   56 2    
    94   55   57 am   BACKBONE|DICT|INTERRES
    95   57  108 1    
    96   57   58 1    
    97   58   59 1    
    98   58  109 1    
    99   58  110 1    
   100   59  111 1    
   101   59  112 1    
   102   60   61 1    
   103   60  113 1    
   104   61  114 1    
   105   61   62 1    
   106   61  115 1    
   107   62   64 1    
   108   62   63 2    
   109   64  117 1    
   110   64  116 1    
   111   64   65 1    
   112   65   66 1    
   113   65  118 1    
   114   65  119 1    
   115   66  120 1    
   116   66  121 1    
   117   66   67 1    
   118   67   68 1    
   119   67  122 1    
   120   67  123 1    
   121   68  125 1    
   122   68  124 1    
   123   68   69 1    
   124   69  126 1    
   125   69   70 2    
   126   70   71 1    
   127   70  127 1    
   128   71  129 1    
   129   71   72 1    
   130   71  128 1    
   131   72  130 1    
   132   72   73 1    
   133   72  131 1    
   134   73   74 1    
   135   73  132 1    
   136   73  133 1    
   137   74  134 1    
   138   74   75 1    
   139   74  135 1    
   140   75  136 1    
   141   75  137 1    
   142   75   76 1    
   143   76  138 1    
   144   76  139 1    
   145   76  140 1    
@<TRIPOS>SUBSTRUCTURE
     1 UNK         1 GROUP             0       ****    0 ROOT    
@<TRIPOS>MOLECULE
264_c1
64   72    1
SMALL
USER_CHARGES


@<TRIPOS>ATOM
      1 Fe1        -0.4568    2.3279    0.0849 Fe        1 UNK         0.0000 
      2 C2         -1.8765    1.3342   -5.0211 C.ar      1 UNK         0.0000 
      3 C3         -1.7438    2.7137   -5.0992 C.ar      1 UNK         0.0000 
      4 C4         -1.6284    3.4669   -3.9386 C.ar      1 UNK         0.0000 
      5 C5         -1.6610    2.8635   -2.6816 C.ar      1 UNK         0.0000 
      6 O6         -1.5951    3.6531   -1.6768 O.co2     1 UNK         0.0000 
      7 C7         -1.7530    1.4494   -2.5866 C.ar      1 UNK         0.0000 
      8 O8         -1.7008    0.8889   -1.4345 O.co2     1 UNK         0.0000 
      9 C9         -1.8697    0.6684   -3.7819 C.ar      1 UNK         0.0000 
     10 C10        -1.9909   -0.8552   -3.7979 C.2       1 UNK         0.0000 
     11 O11        -1.8152   -1.5366   -4.8201 O.2       1 UNK         0.0000 
     12 N12        -2.3518   -1.4114   -2.6426 N.am      1 UNK         0.0000 
     13 C13        -2.3366   -2.8163   -2.2639 C.3       1 UNK         0.0000 
     14 C14        -1.2299   -3.0391   -1.2482 C.ar      1 UNK         0.0000 
     15 C15        -1.5621   -3.2457    0.0897 C.ar      1 UNK         0.0000 
     16 C16        -0.5802   -3.1438    1.0742 C.ar      1 UNK         0.0000 
     17 C17        -0.9963   -3.0414    2.5286 C.3       1 UNK         0.0000 
     18 N18        -0.9306   -1.6440    2.9325 N.am      1 UNK         0.0000 
     19 C19        -0.0916   -1.0673    3.7901 C.2       1 UNK         0.0000 
     20 O20         0.6322   -1.7415    4.5400 O.2       1 UNK         0.0000 
     21 C21        -0.1316    0.4604    3.8303 C.ar      1 UNK         0.0000 
     22 C22        -0.7179    1.2802    2.8146 C.ar      1 UNK         0.0000 
     23 O23        -1.2265    0.7578    1.7620 O.co2     1 UNK         0.0000 
     24 C24        -0.6978    2.6939    2.9541 C.ar      1 UNK         0.0000 
     25 O25        -1.2143    3.5154    2.1200 O.co2     1 UNK         0.0000 
     26 C26        -0.0616    3.2655    4.0525 C.ar      1 UNK         0.0000 
     27 C27         0.4895    2.4752    5.0504 C.ar      1 UNK         0.0000 
     28 C28         0.4425    1.0917    4.9464 C.ar      1 UNK         0.0000 
     29 C29         0.7589   -2.9634    0.7085 C.ar      1 UNK         0.0000 
     30 C30         1.1079   -2.7853   -0.6344 C.ar      1 UNK         0.0000 
     31 C31         0.1100   -2.8562   -1.6117 C.ar      1 UNK         0.0000 
     32 C32         2.5351   -2.4010   -1.0182 C.3       1 UNK         0.0000 
     33 N33         2.6239   -0.9710   -1.2653 N.am      1 UNK         0.0000 
     34 C34         3.6878   -0.2047   -1.5121 C.2       1 UNK         0.0000 
     35 O35         4.7911   -0.6894   -1.8121 O.2       1 UNK         0.0000 
     36 C36         3.4426    1.3052   -1.3974 C.ar      1 UNK         0.0000 
     37 C37         2.3063    1.8694   -0.7277 C.ar      1 UNK         0.0000 
     38 O38         1.4001    1.1208   -0.2071 O.co2     1 UNK         0.0000 
     39 C39         2.1720    3.2791   -0.6428 C.ar      1 UNK         0.0000 
     40 O40         1.2052    3.8704   -0.0537 O.co2     1 UNK         0.0000 
     41 C41         3.1343    4.1010   -1.2335 C.ar      1 UNK         0.0000 
     42 C42         4.2351    3.5636   -1.8886 C.ar      1 UNK         0.0000 
     43 C43         4.3915    2.1833   -1.9647 C.ar      1 UNK         0.0000 
     44 H44        -1.9921    0.7651   -5.9304 H         1 UNK         0.0000 
     45 H45        -1.7504    3.2102   -6.0551 H         1 UNK         0.0000 
     46 H46        -1.5151    4.5414   -3.9944 H         1 UNK         0.0000 
     47 H47        -2.2596   -0.6816   -1.9154 H         1 UNK         0.0000 
     48 H48        -3.3093   -3.0767   -1.8415 H         1 UNK         0.0000 
     49 H49        -2.1767   -3.4691   -3.1243 H         1 UNK         0.0000 
     50 H50        -2.6003   -3.3141    0.3794 H         1 UNK         0.0000 
     51 H51        -2.0148   -3.4087    2.6703 H         1 UNK         0.0000 
     52 H52        -0.3491   -3.6756    3.1387 H         1 UNK         0.0000 
     53 H53        -1.2935   -0.9025    2.3096 H         1 UNK         0.0000 
     54 H54        -0.0082    4.3441    4.1179 H         1 UNK         0.0000 
     55 H55         0.9296    2.9433    5.9139 H         1 UNK         0.0000 
     56 H56         0.8523    0.4941    5.7453 H         1 UNK         0.0000 
     57 H57         1.4986   -2.8121    1.4816 H         1 UNK         0.0000 
     58 H58         0.3522   -2.6188   -2.6374 H         1 UNK         0.0000 
     59 H59         3.2219   -2.6794   -0.2158 H         1 UNK         0.0000 
     60 H60         2.8367   -2.9558   -1.9083 H         1 UNK         0.0000 
     61 H61         1.9113   -0.3469   -0.8493 H         1 UNK         0.0000 
     62 H62         3.0100    5.1753   -1.1727 H         1 UNK         0.0000 
     63 H63         4.9672    4.2272   -2.3231 H         1 UNK         0.0000 
     64 H64         5.2622    1.7808   -2.4618 H         1 UNK         0.0000 
@<TRIPOS>BOND
     1    1    6 nc   
     2    1    8 nc   
     3    1   23 nc   
     4    1   25 nc   
     5    1   38 nc   
     6    1   40 nc   
     7    2    9 ar   
     8    2    3 ar   
     9    2   44 1    
    10    3    4 ar   
    11    3   45 1    
    12    4    5 ar   
    13    4   46 1    
    14    5    7 ar   
    15    5    6 1    
    16    7    8 1    
    17    7    9 ar   
    18    9   10 1    
    19   10   12 am   BACKBONE|DICT|INTERRES
    20   10   11 2    
    21   12   13 1    
    22   12   47 1    
    23   13   48 1    
    24   13   14 1    
    25   13   49 1    
    26   14   15 ar   
    27   14   31 ar   
    28   15   50 1    
    29   15   16 ar   
    30   16   17 1    
    31   16   29 ar   
    32   17   51 1    
    33   17   18 1    
    34   17   52 1    
    35   18   19 am   BACKBONE|DICT|INTERRES
    36   18   53 1    
    37   19   21 1    
    38   19   20 2    
    39   21   28 ar   
    40   21   22 ar   
    41   22   24 ar   
    42   22   23 1    
    43   24   26 ar   
    44   24   25 1    
    45   26   54 1    
    46   26   27 ar   
    47   27   55 1    
    48   27   28 ar   
    49   28   56 1    
    50   29   57 1    
    51   29   30 ar   
    52   30   31 ar   
    53   30   32 1    
    54   31   58 1    
    55   32   59 1    
    56   32   33 1    
    57   32   60 1    
    58   33   61 1    
    59   33   34 am   BACKBONE|DICT|INTERRES
    60   34   36 1    
    61   34   35 2    
    62   36   37 ar   
    63   36   43 ar   
    64   37   39 ar   
    65   37   38 1    
    66   39   40 1    
    67   39   41 ar   
    68   41   62 1    
    69   41   42 ar   
    70   42   43 ar   
    71   42   63 1    
    72   43   64 1    
@<TRIPOS>SUBSTRUCTURE
     1 UNK         1 GROUP             0       ****    0 ROOT    
@<TRIPOS>MOLECULE
266_c1
73   81    1
SMALL
USER_CHARGES


@<TRIPOS>ATOM
      1 Fe1        -1.2147    2.5136    0.3874 Fe        1 UNK         0.0000 
      2 O2          0.7937    2.0162   -0.0276 O.co2     1 UNK         0.0000 
      3 C3          1.7280    2.8319    0.2320 C.ar      1 UNK         0.0000 
      4 C4          1.2777    4.1226    0.5373 C.ar      1 UNK         0.0000 
      5 O5          0.0320    4.2950    0.5338 O.co2     1 UNK         0.0000 
      6 C6          2.1540    5.1328    0.8743 C.ar      1 UNK         0.0000 
      7 C7          3.5158    4.8614    0.9152 C.ar      1 UNK         0.0000 
      8 C8          3.9738    3.5713    0.6133 C.ar      1 UNK         0.0000 
      9 C9          3.0942    2.5277    0.2794 C.ar      1 UNK         0.0000 
     10 C10         3.6722    1.1618   -0.0647 C.2       1 UNK         0.0000 
     11 O11         4.7299    1.1125   -0.7157 O.2       1 UNK         0.0000 
     12 N12         3.0579    0.0077    0.3430 N.am      1 UNK         0.0000 
     13 C13         3.3146   -1.2247   -0.4226 C.3       1 UNK         0.0000 
     14 C14         2.0705   -2.0464   -0.7852 C.3       1 UNK         0.0000 
     15 C15         0.9322   -1.3013   -1.5221 C.3       1 UNK         0.0000 
     16 N16        -0.3926   -1.9774   -1.4989 N.am      1 UNK         0.0000 
     17 C17        -1.5007   -1.3554   -2.0132 C.2       1 UNK         0.0000 
     18 O18        -2.5637   -1.9829   -2.1393 O.2       1 UNK         0.0000 
     19 C19        -1.3973    0.0907   -2.5017 C.ar      1 UNK         0.0000 
     20 C20        -1.9182    1.1917   -1.7800 C.ar      1 UNK         0.0000 
     21 O21        -2.4423    1.1187   -0.6447 O.co2     1 UNK         0.0000 
     22 C22        -1.6899    2.5050   -2.1832 C.ar      1 UNK         0.0000 
     23 O23        -1.9864    3.4137   -1.3537 O.co2     1 UNK         0.0000 
     24 C24        -0.9631    2.7785   -3.3343 C.ar      1 UNK         0.0000 
     25 C25        -0.4487    1.7117   -4.0759 C.ar      1 UNK         0.0000 
     26 C26        -0.6561    0.3840   -3.6642 C.ar      1 UNK         0.0000 
     27 C27        -0.5877   -3.1636   -0.6084 C.3       1 UNK         0.0000 
     28 C28        -0.8040   -2.7884    0.8833 C.3       1 UNK         0.0000 
     29 C29         0.0161   -3.6601    1.8722 C.3       1 UNK         0.0000 
     30 C30         0.0575   -3.2003    3.3519 C.3       1 UNK         0.0000 
     31 N31         0.1747   -1.7396    3.5943 N.am      1 UNK         0.0000 
     32 C32         1.5344   -1.1708    3.7754 C.3       1 UNK         0.0000 
     33 C33         2.4735   -1.1278    2.5505 C.3       1 UNK         0.0000 
     34 C34         2.1038   -0.0728    1.4836 C.3       1 UNK         0.0000 
     35 C35        -0.9662   -1.0125    3.7985 C.2       1 UNK         0.0000 
     36 O36        -2.0475   -1.5881    4.0171 O.2       1 UNK         0.0000 
     37 C37        -0.9234    0.5032    3.9055 C.ar      1 UNK         0.0000 
     38 C38        -1.3039    1.3423    2.8495 C.ar      1 UNK         0.0000 
     39 O39        -1.3060    0.9840    1.6482 O.co2     1 UNK         0.0000 
     40 C40        -1.5757    2.6933    3.0508 C.ar      1 UNK         0.0000 
     41 O41        -2.0145    3.3287    2.0431 O.co2     1 UNK         0.0000 
     42 C42        -1.2475    3.2989    4.2623 C.ar      1 UNK         0.0000 
     43 C43        -0.7021    2.5105    5.2841 C.ar      1 UNK         0.0000 
     44 C44        -0.5810    1.1200    5.1207 C.ar      1 UNK         0.0000 
     45 H45         1.7401    6.1005    1.1099 H         1 UNK         0.0000 
     46 H46         4.2047    5.6562    1.1571 H         1 UNK         0.0000 
     47 H47         5.0304    3.3738    0.6137 H         1 UNK         0.0000 
     48 H48         3.8283   -0.9848   -1.3531 H         1 UNK         0.0000 
     49 H49         4.0084   -1.8292    0.1674 H         1 UNK         0.0000 
     50 H50         2.3743   -2.9248   -1.3554 H         1 UNK         0.0000 
     51 H51         1.7009   -2.3989    0.1570 H         1 UNK         0.0000 
     52 H52         1.2457   -1.1097   -2.5550 H         1 UNK         0.0000 
     53 H53         0.8074   -0.3062   -1.0756 H         1 UNK         0.0000 
     54 H54        -0.7253    3.8026   -3.5745 H         1 UNK         0.0000 
     55 H55         0.1802    1.9438   -4.9196 H         1 UNK         0.0000 
     56 H56        -0.1981   -0.4051   -4.2462 H         1 UNK         0.0000 
     57 H57         0.2529   -3.8548   -0.7155 H         1 UNK         0.0000 
     58 H58        -1.4620   -3.7278   -0.9366 H         1 UNK         0.0000 
     59 H59        -0.5600   -1.7343    1.0255 H         1 UNK         0.0000 
     60 H60        -1.8730   -2.8333    1.1135 H         1 UNK         0.0000 
     61 H61        -0.3475   -4.6884    1.8388 H         1 UNK         0.0000 
     62 H62         1.0455   -3.7391    1.5394 H         1 UNK         0.0000 
     63 H63        -0.8714   -3.5569    3.8047 H         1 UNK         0.0000 
     64 H64         0.8426   -3.7328    3.8961 H         1 UNK         0.0000 
     65 H65         2.0322   -1.7275    4.5714 H         1 UNK         0.0000 
     66 H66         1.4651   -0.1475    4.1449 H         1 UNK         0.0000 
     67 H67         3.4603   -0.8469    2.9213 H         1 UNK         0.0000 
     68 H68         2.5818   -2.1192    2.1189 H         1 UNK         0.0000 
     69 H69         1.0980   -0.2510    1.0937 H         1 UNK         0.0000 
     70 H70         2.0033    0.8914    1.9914 H         1 UNK         0.0000 
     71 H71        -1.3055    4.3814    4.3538 H         1 UNK         0.0000 
     72 H72        -0.3750    2.9771    6.1928 H         1 UNK         0.0000 
     73 H73        -0.2107    0.5172    5.9322 H         1 UNK         0.0000 
@<TRIPOS>BOND
     1    1    2 nc   
     2    1    5 nc   
     3    1   21 nc   
     4    1   23 nc   
     5    1   39 nc   
     6    1   41 nc   
     7    2    3 1    
     8    3    4 ar   
     9    3    9 ar   
    10    4    6 ar   
    11    4    5 1    
    12    6   45 1    
    13    6    7 ar   
    14    7   46 1    
    15    7    8 ar   
    16    8    9 ar   
    17    8   47 1    
    18    9   10 1    
    19   10   12 am   BACKBONE|DICT|INTERRES
    20   10   11 2    
    21   12   34 1    
    22   12   13 1    
    23   13   49 1    
    24   13   14 1    
    25   13   48 1    
    26   14   51 1    
    27   14   15 1    
    28   14   50 1    
    29   15   16 1    
    30   15   53 1    
    31   15   52 1    
    32   16   27 1    
    33   16   17 am   BACKBONE|DICT|INTERRES
    34   17   18 2    
    35   17   19 1    
    36   19   20 ar   
    37   19   26 ar   
    38   20   21 1    
    39   20   22 ar   
    40   22   23 1    
    41   22   24 ar   
    42   24   25 ar   
    43   24   54 1    
    44   25   26 ar   
    45   25   55 1    
    46   26   56 1    
    47   27   28 1    
    48   27   57 1    
    49   27   58 1    
    50   28   59 1    
    51   28   60 1    
    52   28   29 1    
    53   29   30 1    
    54   29   61 1    
    55   29   62 1    
    56   30   31 1    
    57   30   63 1    
    58   30   64 1    
    59   31   32 1    
    60   31   35 am   BACKBONE|DICT|INTERRES
    61   32   66 1    
    62   32   65 1    
    63   32   33 1    
    64   33   67 1    
    65   33   34 1    
    66   33   68 1    
    67   34   70 1    
    68   34   69 1    
    69   35   37 1    
    70   35   36 2    
    71   37   44 ar   
    72   37   38 ar   
    73   38   40 ar   
    74   38   39 1    
    75   40   42 ar   
    76   40   41 1    
    77   42   71 1    
    78   42   43 ar   
    79   43   72 1    
    80   43   44 ar   
    81   44   73 1    
@<TRIPOS>SUBSTRUCTURE
     1 UNK         1 GROUP             0       ****    0 ROOT    
@<TRIPOS>MOLECULE
267_TAGE_c1
66   70    1
SMALL
USER_CHARGES


@<TRIPOS>ATOM
      1 Fe1         1.0454    1.9250   -0.0988 Fe        1 UNK         0.0000 
      2 O2          1.1084    2.7916   -2.0460 O.co2     1 UNK         0.0000 
      3 C3          1.0032    1.9955   -2.9968 C.2       1 UNK         0.0000 
      4 C4          1.7390    2.2185   -4.3227 C.3       1 UNK         0.0000 
      5 N5          0.3997    0.8269   -2.6848 N.am      1 UNK         0.0000 
      6 O6         -0.0223    0.7257   -1.4325 O.co2     1 UNK         0.0000 
      7 C7          0.4774   -0.4191   -3.4984 C.3       1 UNK         0.0000 
      8 C8         -0.3513   -1.6152   -2.9272 C.2       1 UNK         0.0000 
      9 O9         -1.5721   -1.6571   -3.0887 O.2       1 UNK         0.0000 
     10 N10         0.3096   -2.5039   -2.1560 N.am      1 UNK         0.0000 
     11 C11        -0.3825   -3.4808   -1.2951 C.3       1 UNK         0.0000 
     12 C12         0.4175   -3.9673   -0.0497 C.3       1 UNK         0.0000 
     13 N13         0.7357   -2.8646    1.0273 N.4       1 UNK         0.0000 
     14 H14         1.2639   -2.1537    0.5328 H         1 UNK         0.0000 
     15 C15        -0.5608   -2.1403    1.5606 C.3       1 UNK         0.0000 
     16 C16        -0.3684   -1.3049    2.8802 C.3       1 UNK         0.0000 
     17 N17        -1.1685   -0.0642    3.0331 N.am      1 UNK         0.0000 
     18 C18        -0.9289    1.0128    2.2723 C.2       1 UNK         0.0000 
     19 O19        -0.1473    0.9089    1.3349 O.co2     1 UNK         0.0000 
     20 C20        -1.5772    2.3951    2.5341 C.3       1 UNK         0.0000 
     21 N21        -1.0191    3.5611    1.7468 N.am      1 UNK         0.0000 
     22 O22         0.2204    3.4555    1.2244 O.co2     1 UNK         0.0000 
     23 C23        -1.7250    4.7388    1.6775 C.2       1 UNK         0.0000 
     24 O24        -1.3419    5.7100    1.0241 O.2       1 UNK         0.0000 
     25 C25        -3.0520    4.9102    2.4347 C.3       1 UNK         0.0000 
     26 C26         1.6888   -3.4528    2.1306 C.3       1 UNK         0.0000 
     27 C27         3.1239   -2.8399    2.0798 C.3       1 UNK         0.0000 
     28 N28         3.2921   -1.6573    2.9344 N.am      1 UNK         0.0000 
     29 C29         3.7424   -0.4261    2.6268 C.2       1 UNK         0.0000 
     30 O30         3.7275    0.4411    3.4929 O.2       1 UNK         0.0000 
     31 C31         4.3199   -0.0721    1.2332 C.3       1 UNK         0.0000 
     32 N32         3.4767    0.9486    0.5993 N.am      1 UNK         0.0000 
     33 O33         2.2218    0.6019    0.3102 O.co2     1 UNK         0.0000 
     34 C34         3.6997    2.2928    0.4822 C.2       1 UNK         0.0000 
     35 O35         2.6342    2.8422    0.1329 O.co2     1 UNK         0.0000 
     36 C36         5.0325    3.0163    0.6864 C.3       1 UNK         0.0000 
     37 H37         1.0677    2.0564   -5.1655 H         1 UNK         0.0000 
     38 H38         2.5973    1.5457   -4.4168 H         1 UNK         0.0000 
     39 H39         2.1197    3.2402   -4.3664 H         1 UNK         0.0000 
     40 H40         1.5333   -0.6699   -3.5159 H         1 UNK         0.0000 
     41 H41         0.1337   -0.1990   -4.5072 H         1 UNK         0.0000 
     42 H42         1.3157   -2.5271   -2.2227 H         1 UNK         0.0000 
     43 H43        -0.5819   -4.3582   -1.9111 H         1 UNK         0.0000 
     44 H44        -1.3692   -3.1112   -0.9970 H         1 UNK         0.0000 
     45 H45         1.3698   -4.4161   -0.3537 H         1 UNK         0.0000 
     46 H46        -0.1424   -4.7493    0.4754 H         1 UNK         0.0000 
     47 H47        -1.2823   -2.9461    1.7186 H         1 UNK         0.0000 
     48 H48        -0.8871   -1.5255    0.7194 H         1 UNK         0.0000 
     49 H49        -0.6252   -1.9448    3.7247 H         1 UNK         0.0000 
     50 H50         0.6825   -1.0293    3.0066 H         1 UNK         0.0000 
     51 H51        -1.7825    0.0329    3.8316 H         1 UNK         0.0000 
     52 H52        -1.6482    2.5828    3.6051 H         1 UNK         0.0000 
     53 H53        -2.6032    2.2689    2.1950 H         1 UNK         0.0000 
     54 H54        -3.3930    5.9448    2.3451 H         1 UNK         0.0000 
     55 H55        -2.9637    4.6836    3.4957 H         1 UNK         0.0000 
     56 H56        -3.8153    4.2802    1.9930 H         1 UNK         0.0000 
     57 H57         1.2118   -3.3181    3.1042 H         1 UNK         0.0000 
     58 H58         1.7423   -4.5363    1.9785 H         1 UNK         0.0000 
     59 H59         3.4230   -2.6945    1.0390 H         1 UNK         0.0000 
     60 H60         3.8116   -3.5846    2.4895 H         1 UNK         0.0000 
     61 H61         3.0970   -1.7676    3.9189 H         1 UNK         0.0000 
     62 H62         5.3471    0.2541    1.3842 H         1 UNK         0.0000 
     63 H63         4.3903   -0.9060    0.5394 H         1 UNK         0.0000 
     64 H64         5.8263    2.3395    0.9938 H         1 UNK         0.0000 
     65 H65         4.9204    3.7900    1.4420 H         1 UNK         0.0000 
     66 H66         5.3406    3.4965   -0.2411 H         1 UNK         0.0000 
@<TRIPOS>BOND
     1    1    2 nc   
     2    1    6 nc   
     3    1   19 nc   
     4    1   22 nc   
     5    1   33 nc   
     6    1   35 nc   
     7    2    3 2    
     8    3    4 1    
     9    3    5 am   BACKBONE|DICT|INTERRES
    10    4   39 1    
    11    4   37 1    
    12    4   38 1    
    13    5    6 1    
    14    5    7 1    
    15    7    8 1    
    16    7   40 1    
    17    7   41 1    
    18    8    9 2    
    19    8   10 am   BACKBONE|DICT|INTERRES
    20   10   11 1    
    21   10   42 1    
    22   11   44 1    
    23   11   12 1    
    24   11   43 1    
    25   12   46 1    
    26   12   13 1    
    27   12   45 1    
    28   13   14 1    
    29   13   15 1    
    30   13   26 1    
    31   15   47 1    
    32   15   16 1    
    33   15   48 1    
    34   16   50 1    
    35   16   17 1    
    36   16   49 1    
    37   17   51 1    
    38   17   18 am   BACKBONE|DICT|INTERRES
    39   18   20 1    
    40   18   19 2    
    41   20   52 1    
    42   20   21 1    
    43   20   53 1    
    44   21   23 am   BACKBONE|DICT|INTERRES
    45   21   22 1    
    46   23   25 1    
    47   23   24 2    
    48   25   55 1    
    49   25   54 1    
    50   25   56 1    
    51   26   27 1    
    52   26   57 1    
    53   26   58 1    
    54   27   60 1    
    55   27   28 1    
    56   27   59 1    
    57   28   61 1    
    58   28   29 am   BACKBONE|DICT|INTERRES
    59   29   30 2    
    60   29   31 1    
    61   31   62 1    
    62   31   32 1    
    63   31   63 1    
    64   32   33 1    
    65   32   34 am   BACKBONE|DICT|INTERRES
    66   34   36 1    
    67   34   35 2    
    68   36   64 1    
    69   36   65 1    
    70   36   66 1    
@<TRIPOS>SUBSTRUCTURE
     1 UNK         1 GROUP             0       ****    0 ROOT    
@<TRIPOS>MOLECULE
268_BCMH_c1
69   75    1
SMALL
USER_CHARGES


@<TRIPOS>ATOM
      1 Fe1        -0.2080   -2.6453    0.3618 Fe        1 UNK         0.0000 
      2 O2         -1.4228   -1.1340    0.6498 O.co2     1 UNK         0.0000 
      3 C3         -2.6771   -1.2732    0.4635 C.ar      1 UNK         0.0000 
      4 C4         -3.1350   -2.5878    0.4967 C.ar      1 UNK         0.0000 
      5 O5         -2.2548   -3.4489    0.7402 O.co2     1 UNK         0.0000 
      6 C6         -4.4271   -2.9213    0.1109 C.ar      1 UNK         0.0000 
      7 C7         -5.3090   -1.9014   -0.2610 C.ar      1 UNK         0.0000 
      8 C8         -4.8819   -0.5677   -0.2433 C.ar      1 UNK         0.0000 
      9 C9         -3.5660   -0.2295    0.1111 C.ar      1 UNK         0.0000 
     10 C10        -3.1592    1.2180    0.0302 C.2       1 UNK         0.0000 
     11 O11        -3.9799    2.1458    0.1320 O.2       1 UNK         0.0000 
     12 N12        -1.8802    1.4226   -0.2586 N.am      1 UNK         0.0000 
     13 C13        -1.2405    2.7061   -0.5309 C.3       1 UNK         0.0000 
     14 H14        -1.5526    3.3457    0.2970 H         1 UNK         0.0000 
     15 C15         0.2987    2.7479   -0.3444 C.2       1 UNK         0.0000 
     16 O16         0.9206    3.7118   -0.8086 O.2       1 UNK         0.0000 
     17 N17         0.9146    1.7764    0.3648 N.am      1 UNK         0.0000 
     18 C18         2.3767    1.7754    0.5834 C.3       1 UNK         0.0000 
     19 H19         2.6170    2.8249    0.7883 H         1 UNK         0.0000 
     20 C20         3.1710    1.4364   -0.7088 C.2       1 UNK         0.0000 
     21 O21         4.0627    2.1223   -1.1672 O.2       1 UNK         0.0000 
     22 O22         2.7144    0.2796   -1.2451 O.3       1 UNK         0.0000 
     23 C23         2.8667    1.0306    1.8716 C.3       1 UNK         0.0000 
     24 C24         3.2260   -0.4898    1.8379 C.3       1 UNK         0.0000 
     25 C25         2.0729   -1.4961    1.6863 C.2       1 UNK         0.0000 
     26 O26         1.0837   -1.3381    0.9772 O.co2     1 UNK         0.0000 
     27 N27         2.0520   -2.7169    2.2627 N.am      1 UNK         0.0000 
     28 C28         3.1017   -3.3390    3.0631 C.3       1 UNK         0.0000 
     29 O29         1.0133   -3.4713    1.9301 O.co2     1 UNK         0.0000 
     30 C30        -1.7867    3.3926   -1.8243 C.3       1 UNK         0.0000 
     31 C31        -1.9158    2.5185   -3.0980 C.3       1 UNK         0.0000 
     32 C32        -0.5843    2.2275   -3.8127 C.3       1 UNK         0.0000 
     33 C33        -0.7436    1.2362   -4.9884 C.3       1 UNK         0.0000 
     34 N34        -1.0135   -0.1324   -4.5252 N.am      1 UNK         0.0000 
     35 C35        -0.0437   -0.9484   -4.0707 C.2       1 UNK         0.0000 
     36 O36         1.1531   -0.6365   -4.1354 O.2       1 UNK         0.0000 
     37 C37        -0.5201   -2.2744   -3.5062 C.ar      1 UNK         0.0000 
     38 C38        -1.4833   -3.0424   -4.1929 C.ar      1 UNK         0.0000 
     39 C39        -1.9141   -4.2770   -3.6894 C.ar      1 UNK         0.0000 
     40 C40        -1.3720   -4.7827   -2.5062 C.ar      1 UNK         0.0000 
     41 C41        -0.4614   -4.0119   -1.7898 C.ar      1 UNK         0.0000 
     42 O42        -0.0727   -4.3592   -0.6360 O.co2     1 UNK         0.0000 
     43 C43        -0.0747   -2.7590   -2.2654 C.ar      1 UNK         0.0000 
     44 O44         0.5425   -2.0543   -1.4270 O.co2     1 UNK         0.0000 
     45 H45        -4.7204   -3.9555    0.0432 H         1 UNK         0.0000 
     46 H46        -6.3079   -2.1421   -0.5835 H         1 UNK         0.0000 
     47 H47        -5.5647    0.2091   -0.5643 H         1 UNK         0.0000 
     48 H48        -1.3567    0.5419   -0.2167 H         1 UNK         0.0000 
     49 H49         0.4081    0.9417    0.6356 H         1 UNK         0.0000 
     50 H50         2.1833    1.2468    2.6986 H         1 UNK         0.0000 
     51 H51         3.7779    1.5547    2.1688 H         1 UNK         0.0000 
     52 H52         3.9459   -0.6913    1.0500 H         1 UNK         0.0000 
     53 H53         3.7469   -0.7259    2.7659 H         1 UNK         0.0000 
     54 H54         2.8962   -3.1573    4.1180 H         1 UNK         0.0000 
     55 H55         4.0854   -2.9559    2.8124 H         1 UNK         0.0000 
     56 H56         3.1367   -4.4212    2.9073 H         1 UNK         0.0000 
     57 H57        -2.7856    3.7647   -1.5791 H         1 UNK         0.0000 
     58 H58        -1.2173    4.2972   -2.0455 H         1 UNK         0.0000 
     59 H59        -2.4261    1.5828   -2.8555 H         1 UNK         0.0000 
     60 H60        -2.5809    3.0323   -3.7978 H         1 UNK         0.0000 
     61 H61         0.1408    1.8401   -3.0932 H         1 UNK         0.0000 
     62 H62        -0.1521    3.1691   -4.1678 H         1 UNK         0.0000 
     63 H63         0.1536    1.2682   -5.6141 H         1 UNK         0.0000 
     64 H64        -1.5605    1.5432   -5.6396 H         1 UNK         0.0000 
     65 H65        -1.9629   -0.4330   -4.3485 H         1 UNK         0.0000 
     66 H66        -1.9127   -2.6904   -5.1146 H         1 UNK         0.0000 
     67 H67        -2.6820   -4.8469   -4.1900 H         1 UNK         0.0000 
     68 H68        -1.7200   -5.7079   -2.0707 H         1 UNK         0.0000 
     69 H69         2.9493    0.1054   -2.1591 H         1 UNK         0.0000 
@<TRIPOS>BOND
     1    1    2 nc   
     2    1    5 nc   
     3    1   26 nc   
     4    1   29 nc   
     5    1   42 nc   
     6    1   44 nc   
     7    2    3 1    
     8    3    4 ar   
     9    3    9 ar   
    10    4    5 1    
    11    4    6 ar   
    12    6    7 ar   
    13    6   45 1    
    14    7    8 ar   
    15    7   46 1    
    16    8    9 ar   
    17    8   47 1    
    18    9   10 1    
    19   10   11 2    
    20   10   12 am   BACKBONE|DICT|INTERRES
    21   12   13 1    
    22   12   48 1    
    23   13   15 1    
    24   13   14 1    
    25   13   30 1    
    26   15   17 am   BACKBONE|DICT|INTERRES
    27   15   16 2    
    28   17   18 1    
    29   17   49 1    
    30   18   19 1    
    31   18   23 1    
    32   18   20 1    
    33   20   21 2    
    34   20   22 1    
    35   22   69 1    
    36   23   51 1    
    37   23   50 1    
    38   23   24 1    
    39   24   25 1    
    40   24   53 1    
    41   24   52 1    
    42   25   26 2    
    43   25   27 am   BACKBONE|DICT|INTERRES
    44   27   28 1    
    45   27   29 1    
    46   28   54 1    
    47   28   55 1    
    48   28   56 1    
    49   30   57 1    
    50   30   31 1    
    51   30   58 1    
    52   31   59 1    
    53   31   32 1    
    54   31   60 1    
    55   32   61 1    
    56   32   33 1    
    57   32   62 1    
    58   33   34 1    
    59   33   63 1    
    60   33   64 1    
    61   34   35 am   BACKBONE|DICT|INTERRES
    62   34   65 1    
    63   35   37 1    
    64   35   36 2    
    65   37   43 ar   
    66   37   38 ar   
    67   38   39 ar   
    68   38   66 1    
    69   39   40 ar   
    70   39   67 1    
    71   40   68 1    
    72   40   41 ar   
    73   41   42 1    
    74   41   43 ar   
    75   43   44 1    
@<TRIPOS>SUBSTRUCTURE
     1 UNK         1 GROUP             0       ****    0 ROOT    
@<TRIPOS>MOLECULE
269_c1
66   73    1
SMALL
USER_CHARGES


@<TRIPOS>ATOM
      1 Fe1        -0.3482    2.3971    0.1893 Fe        1 UNK         0.0000 
      2 C2          2.1121    0.9035   -4.2929 C.ar      1 UNK         0.0000 
      3 C3          2.5537    2.2247   -4.2384 C.ar      1 UNK         0.0000 
      4 C4          2.0098    3.1065   -3.3076 C.ar      1 UNK         0.0000 
      5 C5          1.0389    2.6583   -2.4224 C.ar      1 UNK         0.0000 
      6 O6          0.5249    3.4624   -1.5882 O.co2     1 UNK         0.0000 
      7 C7          0.6365    1.3115   -2.4182 C.ar      1 UNK         0.0000 
      8 O8         -0.1617    0.9676   -1.4793 O.co2     1 UNK         0.0000 
      9 C9          1.1533    0.4174   -3.3961 C.ar      1 UNK         0.0000 
     10 C10         0.7269   -1.0253   -3.5096 C.2       1 UNK         0.0000 
     11 O11         0.8977   -1.6972   -4.5319 O.2       1 UNK         0.0000 
     12 N12         0.1733   -1.5323   -2.4108 N.am      1 UNK         0.0000 
     13 C13        -0.4280   -2.8479   -2.2797 C.3       1 UNK         0.0000 
     14 C14        -0.6583   -3.2711   -0.8113 C.3       1 UNK         0.0000 
     15 N15        -1.6791   -2.3812   -0.0379 N.4       1 UNK         0.0000 
     16 H16        -1.2760   -1.4417    0.0367 H         1 UNK         0.0000 
     17 C17        -1.8939   -2.8761    1.4274 C.3       1 UNK         0.0000 
     18 C18        -0.5921   -3.0019    2.2546 C.3       1 UNK         0.0000 
     19 N19         0.1724   -1.7680    2.3430 N.am      1 UNK         0.0000 
     20 C20         1.3030   -1.5633    3.0109 C.2       1 UNK         0.0000 
     21 O21         1.8531   -2.4719    3.6431 O.2       1 UNK         0.0000 
     22 C22         1.8617   -0.1518    2.9215 C.ar      1 UNK         0.0000 
     23 C23         1.2107    0.9076    2.2384 C.ar      1 UNK         0.0000 
     24 O24         0.0969    0.7780    1.6315 O.co2     1 UNK         0.0000 
     25 C25         1.8161    2.1708    2.1726 C.ar      1 UNK         0.0000 
     26 O26         1.2809    3.1083    1.5316 O.co2     1 UNK         0.0000 
     27 C27         3.0351    2.4152    2.7763 C.ar      1 UNK         0.0000 
     28 C28         3.6949    1.3803    3.4276 C.ar      1 UNK         0.0000 
     29 C29         3.1132    0.1115    3.4986 C.ar      1 UNK         0.0000 
     30 C30        -3.0094   -2.2224   -0.8394 C.3       1 UNK         0.0000 
     31 C31        -4.1730   -1.5517   -0.0688 C.3       1 UNK         0.0000 
     32 N32        -3.8544   -0.2358    0.4651 N.am      1 UNK         0.0000 
     33 C33        -4.5900    0.5060    1.2938 C.2       1 UNK         0.0000 
     34 O34        -5.6463    0.0721    1.7778 O.2       1 UNK         0.0000 
     35 C35        -4.0311    1.8813    1.5925 C.ar      1 UNK         0.0000 
     36 C36        -2.8651    2.4041    0.9684 C.ar      1 UNK         0.0000 
     37 O37        -2.0763    1.7705    0.1881 O.co2     1 UNK         0.0000 
     38 C38        -2.3987    3.6654    1.3019 C.ar      1 UNK         0.0000 
     39 O39        -1.2983    3.9793    0.7819 O.co2     1 UNK         0.0000 
     40 C40        -3.0316    4.4490    2.2587 C.ar      1 UNK         0.0000 
     41 C41        -4.1505    3.9346    2.9163 C.ar      1 UNK         0.0000 
     42 C42        -4.6474    2.6638    2.5874 C.ar      1 UNK         0.0000 
     43 H43         2.5216    0.2335   -5.0258 H         1 UNK         0.0000 
     44 H44         3.3035    2.5605   -4.9271 H         1 UNK         0.0000 
     45 H45         2.3509    4.1270   -3.2582 H         1 UNK         0.0000 
     46 H46         0.0370   -0.7307   -1.7636 H         1 UNK         0.0000 
     47 H47         0.2531   -3.5665   -2.7319 H         1 UNK         0.0000 
     48 H48        -1.3361   -2.9174   -2.8775 H         1 UNK         0.0000 
     49 H49        -1.0756   -4.2786   -0.7663 H         1 UNK         0.0000 
     50 H50         0.2788   -3.2446   -0.2540 H         1 UNK         0.0000 
     51 H51        -2.3898   -3.8416    1.3329 H         1 UNK         0.0000 
     52 H52        -2.5670   -2.1701    1.9168 H         1 UNK         0.0000 
     53 H53         0.0463   -3.8045    1.8862 H         1 UNK         0.0000 
     54 H54        -0.8493   -3.2966    3.2703 H         1 UNK         0.0000 
     55 H55        -0.1182   -0.8317    1.9796 H         1 UNK         0.0000 
     56 H56         3.4683    3.3969    2.6853 H         1 UNK         0.0000 
     57 H57         4.6649    1.5685    3.8531 H         1 UNK         0.0000 
     58 H58         3.6429   -0.6842    3.9924 H         1 UNK         0.0000 
     59 H59        -2.7725   -1.6534   -1.7396 H         1 UNK         0.0000 
     60 H60        -3.2940   -3.2386   -1.1182 H         1 UNK         0.0000 
     61 H61        -4.5402   -2.2111    0.7214 H         1 UNK         0.0000 
     62 H62        -5.0166   -1.4308   -0.7498 H         1 UNK         0.0000 
     63 H63        -3.0680    0.3617    0.1433 H         1 UNK         0.0000 
     64 H64        -2.6152    5.3985    2.5620 H         1 UNK         0.0000 
     65 H65        -4.6227    4.5011    3.7035 H         1 UNK         0.0000 
     66 H66        -5.5114    2.2748    3.1133 H         1 UNK         0.0000 
@<TRIPOS>BOND
     1    1    6 nc   
     2    1    8 nc   
     3    1   24 nc   
     4    1   26 nc   
     5    1   37 nc   
     6    1   39 nc   
     7    2    9 ar   
     8    2    3 ar   
     9    2   43 1    
    10    3    4 ar   
    11    3   44 1    
    12    4    5 ar   
    13    4   45 1    
    14    5    7 ar   
    15    5    6 1    
    16    7    8 1    
    17    7    9 ar   
    18    9   10 1    
    19   10   12 am   BACKBONE|DICT|INTERRES
    20   10   11 2    
    21   12   46 1    
    22   12   13 1    
    23   13   14 1    
    24   13   47 1    
    25   13   48 1    
    26   14   50 1    
    27   14   15 1    
    28   14   49 1    
    29   15   16 1    
    30   15   17 1    
    31   15   30 1    
    32   17   51 1    
    33   17   52 1    
    34   17   18 1    
    35   18   19 1    
    36   18   54 1    
    37   18   53 1    
    38   19   20 am   BACKBONE|DICT|INTERRES
    39   19   55 1    
    40   20   21 2    
    41   20   22 1    
    42   22   29 ar   
    43   22   23 ar   
    44   23   24 1    
    45   23   25 ar   
    46   25   27 ar   
    47   25   26 1    
    48   27   28 ar   
    49   27   56 1    
    50   28   29 ar   
    51   28   57 1    
    52   29   58 1    
    53   30   31 1    
    54   30   59 1    
    55   30   60 1    
    56   31   32 1    
    57   31   61 1    
    58   31   62 1    
    59   32   33 am   BACKBONE|DICT|INTERRES
    60   32   63 1    
    61   33   34 2    
    62   33   35 1    
    63   35   42 ar   
    64   35   36 ar   
    65   36   38 ar   
    66   36   37 1    
    67   38   40 ar   
    68   38   39 1    
    69   40   64 1    
    70   40   41 ar   
    71   41   65 1    
    72   41   42 ar   
    73   42   66 1    
@<TRIPOS>SUBSTRUCTURE
     1 UNK         1 GROUP             0       ****    0 ROOT    
@<TRIPOS>MOLECULE
274_c1
58   63    1
SMALL
USER_CHARGES


@<TRIPOS>ATOM
      1 Fe1         0.0312    0.0013   -0.0321 Fe        1 UNK         0.0000 
      2 C2          3.6693    5.6399   -0.2225 C.3       1 UNK         0.0000 
      3 N3          3.1442    4.2858   -0.0441 N.pl3     1 UNK         0.0000 
      4 C4          1.7942    3.8971   -0.0339 C.2       1 UNK         0.0000 
      5 C5          0.7219    4.9926   -0.0499 C.3       1 UNK         0.0000 
      6 C6          1.4477    2.5693   -0.0240 C.2       1 UNK         0.0000 
      7 O7          0.1866    2.2881    0.0435 O.co2     1 UNK         0.0000 
      8 C8          2.4933    1.5357   -0.0463 C.2       1 UNK         0.0000 
      9 O9          2.2807    0.2610   -0.1359 O.co2     1 UNK         0.0000 
     10 C10         3.7820    1.8914    0.0362 C.2       1 UNK         0.0000 
     11 C11         4.2402    3.3343    0.2313 C.3       1 UNK         0.0000 
     12 H12         2.9399    6.4268   -0.3892 H         1 UNK         0.0000 
     13 H13         4.2283    5.9079    0.6730 H         1 UNK         0.0000 
     14 H14         4.3479    5.6685   -1.0758 H         1 UNK         0.0000 
     15 H15         1.0285    6.0221   -0.0935 H         1 UNK         0.0000 
     16 H16         0.0805    4.8191   -0.9095 H         1 UNK         0.0000 
     17 H17         0.0797    4.8921    0.8211 H         1 UNK         0.0000 
     18 H18         5.0702    3.5321   -0.4349 H         1 UNK         0.0000 
     19 C19         0.1626   -5.5433    3.7814 C.3       1 UNK         0.0000 
     20 N20         0.2293   -4.1990    3.2212 N.pl3     1 UNK         0.0000 
     21 C21        -0.2965   -3.9369    1.8418 C.3       1 UNK         0.0000 
     22 C22         0.1920   -4.9590    0.7740 C.3       1 UNK         0.0000 
     23 C23        -0.0199   -2.4417    1.4609 C.2       1 UNK         0.0000 
     24 O24         0.0582   -2.2716    0.1769 O.co2     1 UNK         0.0000 
     25 C25         0.0281   -1.4723    2.4217 C.2       1 UNK         0.0000 
     26 O26         0.0423   -0.1978    2.2196 O.co2     1 UNK         0.0000 
     27 C27         0.0942   -1.8705    3.8042 C.2       1 UNK         0.0000 
     28 C28         0.2275   -3.1603    4.1495 C.2       1 UNK         0.0000 
     29 H29         0.3161   -6.3268    3.0473 H         1 UNK         0.0000 
     30 H30         0.9496   -5.6636    4.5239 H         1 UNK         0.0000 
     31 H31        -0.7989   -5.7073    4.2667 H         1 UNK         0.0000 
     32 H32         0.1081   -6.0019    1.0398 H         1 UNK         0.0000 
     33 H33        -0.4003   -4.8485   -0.1346 H         1 UNK         0.0000 
     34 H34         1.2172   -4.7590    0.4716 H         1 UNK         0.0000 
     35 H35         0.0956   -1.0961    4.5551 H         1 UNK         0.0000 
     36 H36         0.3401   -3.4412    5.1782 H         1 UNK         0.0000 
     37 C37        -5.4922   -0.0408   -3.8441 C.3       1 UNK         0.0000 
     38 N38        -4.1540    0.0825   -3.2755 N.pl3     1 UNK         0.0000 
     39 C39        -3.8829   -0.4036   -1.8838 C.3       1 UNK         0.0000 
     40 C40        -4.9225    0.0921   -0.8325 C.3       1 UNK         0.0000 
     41 C41        -2.3889   -0.1102   -1.5032 C.2       1 UNK         0.0000 
     42 O42        -2.2339   -0.0155   -0.2219 O.co2     1 UNK         0.0000 
     43 C43        -1.4145   -0.0697   -2.4720 C.2       1 UNK         0.0000 
     44 O44        -0.1413   -0.0406   -2.2808 O.co2     1 UNK         0.0000 
     45 C45        -1.8241   -0.0288   -3.8540 C.2       1 UNK         0.0000 
     46 C46        -3.1148    0.0827   -4.2029 C.2       1 UNK         0.0000 
     47 H47        -6.2866    0.1073   -3.1208 H         1 UNK         0.0000 
     48 H48        -5.6347    0.7179   -4.6126 H         1 UNK         0.0000 
     49 H49        -5.6218   -1.0207   -4.3023 H         1 UNK         0.0000 
     50 H50        -5.9623   -0.0253   -1.0992 H         1 UNK         0.0000 
     51 H51        -4.8049   -0.4748    0.0897 H         1 UNK         0.0000 
     52 H52        -4.7528    1.1284   -0.5533 H         1 UNK         0.0000 
     53 H53        -1.0575   -0.0243   -4.6130 H         1 UNK         0.0000 
     54 H54        -3.3993    0.1816   -5.2343 H         1 UNK         0.0000 
     55 H55        -1.3839   -4.0072    1.8888 H         1 UNK         0.0000 
     56 H56        -3.9429   -1.4914   -1.9076 H         1 UNK         0.0000 
     57 H57         4.5185    1.1075    0.0167 H         1 UNK         0.0000 
     58 H58         4.5786    3.4537    1.2570 H         1 UNK         0.0000 
@<TRIPOS>BOND
     1    1    7 nc   
     2    1    9 nc   
     3    1   24 nc   
     4    1   26 nc   
     5    1   42 nc   
     6    1   44 nc   
     7    2    3 1    
     8    2   13 1    
     9    2   12 1    
    10    2   14 1    
    11    3   11 1    
    12    3    4 1    
    13    4    5 1    
    14    4    6 2    
    15    5   17 1    
    16    5   15 1    
    17    5   16 1    
    18    6    8 1    
    19    6    7 1    
    20    8    9 1    
    21    8   10 2    
    22   10   11 1    
    23   10   57 1    
    24   11   18 1    
    25   11   58 1    
    26   19   30 1    
    27   19   31 1    
    28   19   20 1    
    29   19   29 1    
    30   20   28 1    
    31   20   21 1    
    32   21   22 1    
    33   21   23 1    
    34   21   55 1    
    35   22   32 1    
    36   22   33 1    
    37   22   34 1    
    38   23   25 2    
    39   23   24 1    
    40   25   27 1    
    41   25   26 1    
    42   27   28 2    
    43   27   35 1    
    44   28   36 1    
    45   37   38 1    
    46   37   47 1    
    47   37   48 1    
    48   37   49 1    
    49   38   39 1    
    50   38   46 1    
    51   39   41 1    
    52   39   40 1    
    53   39   56 1    
    54   40   52 1    
    55   40   51 1    
    56   40   50 1    
    57   41   42 1    
    58   41   43 2    
    59   43   44 1    
    60   43   45 1    
    61   45   46 2    
    62   45   53 1    
    63   46   54 1    
@<TRIPOS>SUBSTRUCTURE
     1 UNK         1 GROUP             0       ****    0 ROOT    
@<TRIPOS>MOLECULE
275_c1
85   96    1
SMALL
USER_CHARGES


@<TRIPOS>ATOM
      1 Fe1         0.0001    0.2808   -0.2813 Fe        1 UNK         0.0000 
      2 C2         -1.6434   -3.9815   -3.2006 C.ar      1 UNK         0.0000 
      3 C3         -2.8072   -4.3932   -2.5418 C.ar      1 UNK         0.0000 
      4 C4         -3.0193   -4.0211   -1.2177 C.ar      1 UNK         0.0000 
      5 C5         -2.0889   -3.2138   -0.5700 C.ar      1 UNK         0.0000 
      6 C6         -0.9450   -2.7768   -1.2333 C.ar      1 UNK         0.0000 
      7 O7         -0.2170   -1.9964   -0.5686 O.co2     1 UNK         0.0000 
      8 C8         -0.6829   -3.1582   -2.5747 C.ar      1 UNK         0.0000 
      9 C9          0.5428   -2.6949   -3.4341 C.3       1 UNK         0.0000 
     10 N10         1.7760   -2.5975   -2.6796 N.2       1 UNK         0.0000 
     11 C11         2.3060   -1.4754   -2.9545 C.2       1 UNK         0.0000 
     12 C12         3.4249   -0.7681   -2.2485 C.ar      1 UNK         0.0000 
     13 C13         3.4019   -0.3452   -0.8893 C.ar      1 UNK         0.0000 
     14 O14         2.3407   -0.3284   -0.1831 O.co2     1 UNK         0.0000 
     15 C15         4.4841    0.3557   -0.3444 C.ar      1 UNK         0.0000 
     16 C16         5.5064    0.8253   -1.1677 C.ar      1 UNK         0.0000 
     17 C17         5.4929    0.5325   -2.5233 C.ar      1 UNK         0.0000 
     18 C18         4.4872   -0.2879   -3.0389 C.ar      1 UNK         0.0000 
     19 N19         1.7235   -0.9326   -4.1325 N.pl3     1 UNK         0.0000 
     20 N20         0.3909   -1.5072   -4.3072 N.pl3     1 UNK         0.0000 
     21 C21        -0.6087   -0.4980   -4.3684 C.ar      1 UNK         0.0000 
     22 C22        -0.3306    0.7795   -4.9034 C.ar      1 UNK         0.0000 
     23 C23        -0.9358    1.8957   -4.3292 C.ar      1 UNK         0.0000 
     24 C24        -1.8011    1.6747   -3.2532 C.ar      1 UNK         0.0000 
     25 C25        -1.7953    2.6154   -2.1044 C.2       1 UNK         0.0000 
     26 O26        -1.0347    2.3045   -1.1232 O.co2     1 UNK         0.0000 
     27 O27        -2.3730    3.7154   -2.2337 O.co2     1 UNK         0.0000 
     28 C28        -2.4138    0.4347   -3.1204 C.ar      1 UNK         0.0000 
     29 C29        -1.8476   -0.6561   -3.7459 C.ar      1 UNK         0.0000 
     30 H30        -1.5090   -4.2376   -4.2393 H         1 UNK         0.0000 
     31 H31        -3.5403   -4.9979   -3.0482 H         1 UNK         0.0000 
     32 H32        -3.9052   -4.3143   -0.6765 H         1 UNK         0.0000 
     33 H33        -2.2707   -2.8675    0.4429 H         1 UNK         0.0000 
     34 H34         4.4458    0.6934    0.6865 H         1 UNK         0.0000 
     35 H35         6.2571    1.4823   -0.7625 H         1 UNK         0.0000 
     36 H36         6.2239    0.9581   -3.1901 H         1 UNK         0.0000 
     37 H37         4.4602   -0.4744   -4.1009 H         1 UNK         0.0000 
     38 H38         0.5432    0.9393   -5.5116 H         1 UNK         0.0000 
     39 H39        -0.4627    2.8611   -4.4669 H         1 UNK         0.0000 
     40 H40        -3.1022    0.2396   -2.3229 H         1 UNK         0.0000 
     41 H41        -2.2691   -1.6021   -3.5056 H         1 UNK         0.0000 
     42 C42         1.6287    3.2260    3.9696 C.ar      1 UNK         0.0000 
     43 C43         2.7868    2.5657    4.3943 C.ar      1 UNK         0.0000 
     44 C44         2.9972    1.2386    4.0319 C.ar      1 UNK         0.0000 
     45 C45         2.0703    0.5889    3.2223 C.ar      1 UNK         0.0000 
     46 C46         0.9316    1.2531    2.7740 C.ar      1 UNK         0.0000 
     47 O47         0.2064    0.5845    1.9945 O.co2     1 UNK         0.0000 
     48 C48         0.6714    2.5980    3.1442 C.ar      1 UNK         0.0000 
     49 C49        -0.5488    3.4588    2.6676 C.3       1 UNK         0.0000 
     50 N50        -1.7839    2.7081    2.5699 N.2       1 UNK         0.0000 
     51 C51        -2.3071    2.9754    1.4430 C.2       1 UNK         0.0000 
     52 C52        -3.4247    2.2659    0.7369 C.ar      1 UNK         0.0000 
     53 C53        -3.4028    0.9025    0.3280 C.ar      1 UNK         0.0000 
     54 O54        -2.3431    0.1932    0.3179 O.co2     1 UNK         0.0000 
     55 C55        -4.4847    0.3540   -0.3704 C.ar      1 UNK         0.0000 
     56 C56        -5.5064    1.1736   -0.8477 C.ar      1 UNK         0.0000 
     57 C57        -5.4911    2.5316   -0.5677 C.ar      1 UNK         0.0000 
     58 C58        -4.4848    3.0541    0.2472 C.ar      1 UNK         0.0000 
     59 N59        -1.7186    4.1475    0.8939 N.pl3     1 UNK         0.0000 
     60 N60        -0.3882    4.3230    1.4741 N.pl3     1 UNK         0.0000 
     61 C61         0.6173    4.3735    0.4702 C.ar      1 UNK         0.0000 
     62 C62         0.3485    4.8992   -0.8137 C.ar      1 UNK         0.0000 
     63 C63         0.9576    4.3128   -1.9212 C.ar      1 UNK         0.0000 
     64 C64         1.8159    3.2351   -1.6858 C.ar      1 UNK         0.0000 
     65 C65         1.8054    2.0770   -2.6143 C.2       1 UNK         0.0000 
     66 O66         1.0462    1.1055   -2.3056 O.co2     1 UNK         0.0000 
     67 O67         2.3929    2.2007   -3.7194 O.co2     1 UNK         0.0000 
     68 C68         2.4212    3.1076   -0.4398 C.ar      1 UNK         0.0000 
     69 C69         1.8530    3.7478    0.6408 C.ar      1 UNK         0.0000 
     70 H70         1.4956    4.2664    4.2185 H         1 UNK         0.0000 
     71 H71         3.5169    3.0730    5.0015 H         1 UNK         0.0000 
     72 H72         3.8788    0.6958    4.3358 H         1 UNK         0.0000 
     73 H73         2.2512   -0.4271    2.8846 H         1 UNK         0.0000 
     74 H74        -4.4472   -0.6802   -0.6980 H         1 UNK         0.0000 
     75 H75        -6.2578    0.7621   -1.5000 H         1 UNK         0.0000 
     76 H76        -6.2211    3.1953   -1.0005 H         1 UNK         0.0000 
     77 H77        -4.4561    4.1178    0.4239 H         1 UNK         0.0000 
     78 H78        -0.5215    5.5100   -0.9830 H         1 UNK         0.0000 
     79 H79         0.4922    4.4462   -2.8919 H         1 UNK         0.0000 
     80 H80         3.1030    2.3073   -0.2338 H         1 UNK         0.0000 
     81 H81         2.2681    3.5143    1.5917 H         1 UNK         0.0000 
     82 H82         0.7053   -3.5271   -4.1133 H         1 UNK         0.0000 
     83 H83         1.6063    0.0872   -4.0866 H         1 UNK         0.0000 
     84 H84        -0.7132    4.1446    3.4942 H         1 UNK         0.0000 
     85 H85        -1.5969    4.0932   -0.1248 H         1 UNK         0.0000 
@<TRIPOS>BOND
     1    1    7 nc   
     2    1   14 nc   
     3    1   26 nc   
     4    1   47 nc   
     5    1   54 nc   
     6    1   66 nc   
     7    2    3 ar   
     8    2    8 ar   
     9    2   30 1    
    10    3    4 ar   
    11    3   31 1    
    12    4   32 1    
    13    4    5 ar   
    14    5   33 1    
    15    5    6 ar   
    16    6    7 1    
    17    6    8 ar   
    18    8    9 1    
    19    9   10 1    
    20    9   20 1    
    21    9   82 1    
    22   10   11 2    
    23   11   12 1    
    24   11   19 1    
    25   12   13 ar   
    26   12   18 ar   
    27   13   15 ar   
    28   13   14 1    
    29   15   34 1    
    30   15   16 ar   
    31   16   35 1    
    32   16   17 ar   
    33   17   18 ar   
    34   17   36 1    
    35   18   37 1    
    36   19   20 1    
    37   19   83 1    
    38   20   21 1    
    39   21   29 ar   
    40   21   22 ar   
    41   22   23 ar   
    42   22   38 1    
    43   23   24 ar   
    44   23   39 1    
    45   24   25 1    
    46   24   28 ar   
    47   25   26 1    
    48   25   27 2    
    49   28   40 1    
    50   28   29 ar   
    51   29   41 1    
    52   42   70 1    
    53   42   43 ar   
    54   42   48 ar   
    55   43   71 1    
    56   43   44 ar   
    57   44   72 1    
    58   44   45 ar   
    59   45   46 ar   
    60   45   73 1    
    61   46   48 ar   
    62   46   47 1    
    63   48   49 1    
    64   49   50 1    
    65   49   60 1    
    66   49   84 1    
    67   50   51 2    
    68   51   52 1    
    69   51   59 1    
    70   52   53 ar   
    71   52   58 ar   
    72   53   54 1    
    73   53   55 ar   
    74   55   56 ar   
    75   55   74 1    
    76   56   57 ar   
    77   56   75 1    
    78   57   58 ar   
    79   57   76 1    
    80   58   77 1    
    81   59   60 1    
    82   59   85 1    
    83   60   61 1    
    84   61   69 ar   
    85   61   62 ar   
    86   62   63 ar   
    87   62   78 1    
    88   63   64 ar   
    89   63   79 1    
    90   64   68 ar   
    91   64   65 1    
    92   65   66 1    
    93   65   67 2    
    94   68   80 1    
    95   68   69 ar   
    96   69   81 1    
@<TRIPOS>SUBSTRUCTURE
     1 UNK         1 GROUP             0       ****    0 ROOT    
@<TRIPOS>MOLECULE
277_c1
148   159    1
SMALL
USER_CHARGES


@<TRIPOS>ATOM
      1 Fe1         0.0146    0.0448    0.0586 Fe        1 UNK         0.0000 
      2 O2          0.1130    2.1787    0.3337 O.co2     1 UNK         0.0000 
      3 C3          1.3245    2.6203    0.3616 C.2       1 UNK         0.0000 
      4 C4          1.6060    3.9621    0.3530 C.2       1 UNK         0.0000 
      5 C5          0.5535    5.0636    0.2276 C.3       1 UNK         0.0000 
      6 N6          2.8696    4.4982    0.4757 N.2       1 UNK         0.0000 
      7 C7          3.8458    3.6749    0.2738 C.2       1 UNK         0.0000 
      8 O8          5.1680    4.0902    0.3135 O.3       1 UNK         0.0000 
      9 C9          5.4246    5.4885    0.4311 C.3       1 UNK         0.0000 
     10 C10         3.6845    2.1814   -0.1438 C.3       1 UNK         0.0000 
     11 N11         2.3771    1.6832    0.3653 N.pl3     1 UNK         0.0000 
     12 O12         2.2566    0.3607    0.2019 O.co2     1 UNK         0.0000 
     13 C13         4.9235    1.2358    0.1107 C.3       1 UNK         0.0000 
     14 C14         5.1399    0.4164   -1.1484 C.ar      1 UNK         0.0000 
     15 C15         4.8538   -0.9180   -1.3409 C.ar      1 UNK         0.0000 
     16 N16         4.9719   -1.2397   -2.6705 N.pl3     1 UNK         0.0000 
     17 H17         4.6560   -2.1321   -3.0169 H         1 UNK         0.0000 
     18 C18         5.2955   -0.1096   -3.3955 C.ar      1 UNK         0.0000 
     19 C19         5.3915    0.9581   -2.4544 C.ar      1 UNK         0.0000 
     20 C20         5.4738    0.0916   -4.7803 C.ar      1 UNK         0.0000 
     21 C21         5.7005    1.4134   -5.1902 C.ar      1 UNK         0.0000 
     22 C22         5.7692    2.4761   -4.2928 C.ar      1 UNK         0.0000 
     23 C23         5.6422    2.2572   -2.9234 C.ar      1 UNK         0.0000 
     24 C24         5.4222   -0.9975   -5.8360 C.3       1 UNK         0.0000 
     25 C25         4.3719   -0.7846   -6.9170 C.2       1 UNK         0.0000 
     26 C26         4.2085   -1.5727   -7.9950 C.2       1 UNK         0.0000 
     27 C27         5.0595   -2.8115   -8.2351 C.3       1 UNK         0.0000 
     28 C28         3.1584   -1.2837   -9.0526 C.3       1 UNK         0.0000 
     29 H29        -0.4501    4.6447    0.1132 H         1 UNK         0.0000 
     30 H30         0.5702    5.6824    1.1223 H         1 UNK         0.0000 
     31 H31         0.7539    5.6731   -0.6534 H         1 UNK         0.0000 
     32 H32         4.9825    5.9257    1.3285 H         1 UNK         0.0000 
     33 H33         6.5073    5.6279    0.4923 H         1 UNK         0.0000 
     34 H34         5.0756    6.0285   -0.4528 H         1 UNK         0.0000 
     35 H35         5.8356    1.7693    0.3538 H         1 UNK         0.0000 
     36 H36         4.7310    0.5922    0.9730 H         1 UNK         0.0000 
     37 H37         4.4063   -1.6008   -0.6277 H         1 UNK         0.0000 
     38 H38         5.8010    1.6358   -6.2449 H         1 UNK         0.0000 
     39 H39         5.8959    3.4855   -4.6602 H         1 UNK         0.0000 
     40 H40         5.6504    3.0751   -2.2194 H         1 UNK         0.0000 
     41 H41         5.2254   -1.9549   -5.3537 H         1 UNK         0.0000 
     42 H42         6.4085   -1.0633   -6.2971 H         1 UNK         0.0000 
     43 H43         3.7219    0.0706   -6.7751 H         1 UNK         0.0000 
     44 H44         6.1152   -2.5453   -8.2773 H         1 UNK         0.0000 
     45 H45         4.9091   -3.5225   -7.4222 H         1 UNK         0.0000 
     46 H46         4.7956   -3.3118   -9.1657 H         1 UNK         0.0000 
     47 H47         3.6331   -1.1324  -10.0223 H         1 UNK         0.0000 
     48 H48         2.5868   -0.3826   -8.8170 H         1 UNK         0.0000 
     49 H49         2.4556   -2.1136   -9.1289 H         1 UNK         0.0000 
     50 O50        -0.0665   -2.1238    0.0845 O.co2     1 UNK         0.0000 
     51 C51         0.0788   -2.5625    1.2932 C.2       1 UNK         0.0000 
     52 C52         0.2308   -3.8931    1.6017 C.2       1 UNK         0.0000 
     53 C53         0.1775   -5.0317    0.5843 C.3       1 UNK         0.0000 
     54 N54         0.4460   -4.3940    2.8706 N.2       1 UNK         0.0000 
     55 C55         0.2324   -3.5706    3.8442 C.2       1 UNK         0.0000 
     56 O56         0.2759   -3.9637    5.1698 O.3       1 UNK         0.0000 
     57 C57         0.2996   -5.3595    5.4585 C.3       1 UNK         0.0000 
     58 C58        -0.2728   -2.1169    3.6878 C.3       1 UNK         0.0000 
     59 N59         0.0469   -1.6030    2.3315 N.pl3     1 UNK         0.0000 
     60 O60        -0.5338   -0.4156    2.2134 O.co2     1 UNK         0.0000 
     61 C61         0.0319   -1.1157    4.8747 C.3       1 UNK         0.0000 
     62 C62        -1.2146   -0.2746    5.1131 C.ar      1 UNK         0.0000 
     63 C63        -1.3857    1.0661    4.8273 C.ar      1 UNK         0.0000 
     64 N64        -2.7144    1.4018    4.9039 N.pl3     1 UNK         0.0000 
     65 H65        -3.0489    2.2835    4.5455 H         1 UNK         0.0000 
     66 C66        -3.4582    0.2833    5.2202 C.ar      1 UNK         0.0000 
     67 C67        -2.5331   -0.7944    5.3492 C.ar      1 UNK         0.0000 
     68 C68        -4.8490    0.1009    5.3628 C.ar      1 UNK         0.0000 
     69 C69        -5.2831   -1.2138    5.5845 C.ar      1 UNK         0.0000 
     70 C70        -4.4015   -2.2871    5.6803 C.ar      1 UNK         0.0000 
     71 C71        -3.0270   -2.0856    5.5972 C.ar      1 UNK         0.0000 
     72 C72        -5.8868    1.2036    5.2713 C.3       1 UNK         0.0000 
     73 C73        -6.9398    0.9969    4.1915 C.2       1 UNK         0.0000 
     74 C74        -7.9927    1.8080    3.9839 C.2       1 UNK         0.0000 
     75 C75        -8.2244    3.0639    4.8114 C.3       1 UNK         0.0000 
     76 C76        -9.0268    1.5320    2.9073 C.3       1 UNK         0.0000 
     77 H77         0.0969   -4.6516   -0.4361 H         1 UNK         0.0000 
     78 H78         1.0734   -5.6443    0.6559 H         1 UNK         0.0000 
     79 H79        -0.6980   -5.6470    0.7832 H         1 UNK         0.0000 
     80 H80         1.1862   -5.8516    5.0569 H         1 UNK         0.0000 
     81 H81         0.3181   -5.4670    6.5480 H         1 UNK         0.0000 
     82 H82        -0.6055   -5.8592    5.1020 H         1 UNK         0.0000 
     83 H83         0.3191   -1.6100    5.7954 H         1 UNK         0.0000 
     84 H84         0.8800   -0.4860    4.6007 H         1 UNK         0.0000 
     85 H85        -0.6640    1.7379    4.3764 H         1 UNK         0.0000 
     86 H86        -6.3429   -1.4218    5.6554 H         1 UNK         0.0000 
     87 H87        -4.7828   -3.2926    5.7854 H         1 UNK         0.0000 
     88 H88        -2.3356   -2.9132    5.6188 H         1 UNK         0.0000 
     89 H89        -5.3840    2.1518    5.0798 H         1 UNK         0.0000 
     90 H90        -6.3748    1.2864    6.2432 H         1 UNK         0.0000 
     91 H91        -6.7976    0.1276    3.5618 H         1 UNK         0.0000 
     92 H92        -8.3084    2.8116    5.8689 H         1 UNK         0.0000 
     93 H93        -7.3897    3.7531    4.6802 H         1 UNK         0.0000 
     94 H94        -9.1343    3.5838    4.5139 H         1 UNK         0.0000 
     95 H95       -10.0102    1.4027    3.3595 H         1 UNK         0.0000 
     96 H96        -8.7949    0.6228    2.3479 H         1 UNK         0.0000 
     97 H97        -9.0723    2.3601    2.2001 H         1 UNK         0.0000 
     98 O98        -2.1514    0.2411   -0.1464 O.co2     1 UNK         0.0000 
     99 C99        -2.5612    0.2441   -1.3639 C.2       1 UNK         0.0000 
    100 C100       -3.8900    0.1795   -1.6843 C.2       1 UNK         0.0000 
    101 C101       -5.0250    0.0484   -0.6638 C.3       1 UNK         0.0000 
    102 N102       -4.3907    0.2262   -2.9668 N.2       1 UNK         0.0000 
    103 C103       -3.5325    0.0154   -3.9079 C.2       1 UNK         0.0000 
    104 O104       -3.9110   -0.0447   -5.2400 O.3       1 UNK         0.0000 
    105 C105       -5.3054   -0.0016   -5.5522 C.3       1 UNK         0.0000 
    106 C106       -2.0279   -0.3308   -3.6852 C.3       1 UNK         0.0000 
    107 N107       -1.5913    0.2365   -2.3826 N.pl3     1 UNK         0.0000 
    108 O108       -0.2688    0.1749   -2.2087 O.co2     1 UNK         0.0000 
    109 C109       -1.0547   -0.0869   -4.9027 C.3       1 UNK         0.0000 
    110 C110       -0.1661   -1.3112   -5.0338 C.ar      1 UNK         0.0000 
    111 C111        1.1730   -1.4190   -4.7221 C.ar      1 UNK         0.0000 
    112 N112        1.5594   -2.7353   -4.7688 N.pl3     1 UNK         0.0000 
    113 H113        2.4605   -3.0209   -4.4216 H         1 UNK         0.0000 
    114 C114        0.4726   -3.5330   -5.0663 C.ar      1 UNK         0.0000 
    115 C115       -0.6379   -2.6541   -5.2269 C.ar      1 UNK         0.0000 
    116 C116        0.3420   -4.9341   -5.1691 C.ar      1 UNK         0.0000 
    117 C117       -0.9553   -5.4202   -5.3809 C.ar      1 UNK         0.0000 
    118 C118       -2.0592   -4.5823   -5.5110 C.ar      1 UNK         0.0000 
    119 C119       -1.9085   -3.1995   -5.4680 C.ar      1 UNK         0.0000 
    120 C120        1.4773   -5.9337   -5.0410 C.3       1 UNK         0.0000 
    121 C121        1.3003   -6.9544   -3.9245 C.2       1 UNK         0.0000 
    122 C122        2.1431   -7.9722   -3.6709 C.2       1 UNK         0.0000 
    123 C123        3.4099   -8.1989   -4.4822 C.3       1 UNK         0.0000 
    124 C124        1.8933   -8.9668   -2.5508 C.3       1 UNK         0.0000 
    125 H125       -4.6317    0.0042    0.3541 H         1 UNK         0.0000 
    126 H126       -5.6897    0.9071   -0.7386 H         1 UNK         0.0000 
    127 H127       -5.5812   -0.8723   -0.8402 H         1 UNK         0.0000 
    128 H128       -5.7946    0.8961   -5.1702 H         1 UNK         0.0000 
    129 H129       -5.4137    0.0003   -6.6432 H         1 UNK         0.0000 
    130 H130       -5.8204   -0.8893   -5.1761 H         1 UNK         0.0000 
    131 H131       -1.5694    0.0813   -5.8406 H         1 UNK         0.0000 
    132 H132       -0.4625    0.8165   -4.7348 H         1 UNK         0.0000 
    133 H133        1.8186   -0.6504   -4.3108 H         1 UNK         0.0000 
    134 H134       -1.1261   -6.4876   -5.4190 H         1 UNK         0.0000 
    135 H135       -3.0494   -5.0035   -5.6151 H         1 UNK         0.0000 
    136 H136       -2.7593   -2.5383   -5.5210 H         1 UNK         0.0000 
    137 H137        2.4101   -5.3971   -4.8686 H         1 UNK         0.0000 
    138 H138        1.5758   -6.4539   -5.9943 H         1 UNK         0.0000 
    139 H139        0.4233   -6.8182   -3.3038 H         1 UNK         0.0000 
    140 H140        3.1639   -8.3375   -5.5353 H         1 UNK         0.0000 
    141 H141        4.0710   -7.3371   -4.3858 H         1 UNK         0.0000 
    142 H142        3.9566   -9.0784   -4.1429 H         1 UNK         0.0000 
    143 H143        1.8046   -9.9761   -2.9546 H         1 UNK         0.0000 
    144 H144        0.9711   -8.7403   -2.0108 H         1 UNK         0.0000 
    145 H145        2.7140   -8.9444   -1.8340 H         1 UNK         0.0000 
    146 H146        3.5082    2.2400   -1.2181 H         1 UNK         0.0000 
    147 H147       -1.3462   -2.2592    3.6143 H         1 UNK         0.0000 
    148 H148       -2.0573   -1.3946   -3.4730 H         1 UNK         0.0000 
@<TRIPOS>BOND
     1    1    2 nc   
     2    1   12 nc   
     3    1   50 nc   
     4    1   60 nc   
     5    1   98 nc   
     6    1  108 nc   
     7    2    3 1    
     8    3    4 2    
     9    3   11 1    
    10    4    5 1    
    11    4    6 1    
    12    5   30 1    
    13    5   29 1    
    14    5   31 1    
    15    6    7 2    
    16    7    8 1    
    17    7   10 1    
    18    8    9 1    
    19    9   33 1    
    20    9   32 1    
    21    9   34 1    
    22   10   13 1    
    23   10   11 1    
    24   10  146 1    
    25   11   12 1    
    26   13   35 1    
    27   13   36 1    
    28   13   14 1    
    29   14   15 ar   
    30   14   19 ar   
    31   15   37 1    
    32   15   16 ar   
    33   16   17 1    
    34   16   18 ar   
    35   18   19 ar   
    36   18   20 ar   
    37   19   23 ar   
    38   20   21 ar   
    39   20   24 1    
    40   21   22 ar   
    41   21   38 1    
    42   22   23 ar   
    43   22   39 1    
    44   23   40 1    
    45   24   41 1    
    46   24   25 1    
    47   24   42 1    
    48   25   43 1    
    49   25   26 2    
    50   26   27 1    
    51   26   28 1    
    52   27   45 1    
    53   27   44 1    
    54   27   46 1    
    55   28   48 1    
    56   28   47 1    
    57   28   49 1    
    58   50   51 1    
    59   51   52 2    
    60   51   59 1    
    61   52   54 1    
    62   52   53 1    
    63   53   78 1    
    64   53   79 1    
    65   53   77 1    
    66   54   55 2    
    67   55   56 1    
    68   55   58 1    
    69   56   57 1    
    70   57   81 1    
    71   57   80 1    
    72   57   82 1    
    73   58   61 1    
    74   58   59 1    
    75   58  147 1    
    76   59   60 1    
    77   61   62 1    
    78   61   83 1    
    79   61   84 1    
    80   62   67 ar   
    81   62   63 ar   
    82   63   64 ar   
    83   63   85 1    
    84   64   66 ar   
    85   64   65 1    
    86   66   67 ar   
    87   66   68 ar   
    88   67   71 ar   
    89   68   69 ar   
    90   68   72 1    
    91   69   70 ar   
    92   69   86 1    
    93   70   87 1    
    94   70   71 ar   
    95   71   88 1    
    96   72   90 1    
    97   72   73 1    
    98   72   89 1    
    99   73   74 2    
   100   73   91 1    
   101   74   75 1    
   102   74   76 1    
   103   75   92 1    
   104   75   93 1    
   105   75   94 1    
   106   76   95 1    
   107   76   96 1    
   108   76   97 1    
   109   98   99 1    
   110   99  100 2    
   111   99  107 1    
   112  100  101 1    
   113  100  102 1    
   114  101  125 1    
   115  101  126 1    
   116  101  127 1    
   117  102  103 2    
   118  103  106 1    
   119  103  104 1    
   120  104  105 1    
   121  105  130 1    
   122  105  128 1    
   123  105  129 1    
   124  106  109 1    
   125  106  107 1    
   126  106  148 1    
   127  107  108 1    
   128  109  132 1    
   129  109  110 1    
   130  109  131 1    
   131  110  111 ar   
   132  110  115 ar   
   133  111  133 1    
   134  111  112 ar   
   135  112  113 1    
   136  112  114 ar   
   137  114  115 ar   
   138  114  116 ar   
   139  115  119 ar   
   140  116  120 1    
   141  116  117 ar   
   142  117  118 ar   
   143  117  134 1    
   144  118  119 ar   
   145  118  135 1    
   146  119  136 1    
   147  120  137 1    
   148  120  121 1    
   149  120  138 1    
   150  121  122 2    
   151  121  139 1    
   152  122  124 1    
   153  122  123 1    
   154  123  141 1    
   155  123  142 1    
   156  123  140 1    
   157  124  144 1    
   158  124  145 1    
   159  124  143 1    
@<TRIPOS>SUBSTRUCTURE
     1 UNK         1 GROUP             0       ****    0 ROOT    
@<TRIPOS>MOLECULE
278_c1
165   178    1
SMALL
USER_CHARGES


@<TRIPOS>ATOM
      1 Fe1         0.0000    0.0000    0.0000 Fe        1 UNK         0.0000 
      2 C2          1.8571   -1.6227    3.7524 C.ar      1 UNK         0.0000 
      3 C3          1.4527   -2.3497    2.6132 C.ar      1 UNK         0.0000 
      4 C4          1.4717   -1.7290    1.3608 C.ar      1 UNK         0.0000 
      5 O5          0.7015   -2.1326    0.2549 O.co2     1 UNK         0.0000 
      6 C6          2.1366   -0.5163    1.2499 C.ar      1 UNK         0.0000 
      7 O7          2.0800    0.0000    0.0000 O.co2     1 UNK         0.0000 
      8 C8          2.6168    0.2071    2.3637 C.ar      1 UNK         0.0000 
      9 Cl9         3.4293    1.7258    2.0448 Cl        1 UNK         0.0000 
     10 C10         2.3653   -0.2926    3.6708 C.ar      1 UNK         0.0000 
     11 C11         2.5298    0.4435    5.0018 C.2       1 UNK         0.0000 
     12 O12         2.7653   -0.2721    5.9663 O.2       1 UNK         0.0000 
     13 N13         2.3029    1.7825    5.2943 N.am      1 UNK         0.0000 
     14 C14         1.8743    2.9211    4.4778 C.3       1 UNK         0.0000 
     15 C15         0.5362    2.6719    3.7266 C.3       1 UNK         0.0000 
     16 N16        -0.0605    3.8135    2.9336 N.4       1 UNK         0.0000 
     17 C17         0.8718    4.3689    1.9043 C.3       1 UNK         0.0000 
     18 C18         0.7834    5.8832    2.0182 C.3       1 UNK         0.0000 
     19 C19         0.7032    6.0327    3.5167 C.3       1 UNK         0.0000 
     20 C20        -0.3470    4.9748    3.8318 C.3       1 UNK         0.0000 
     21 C21        -1.3023    3.2497    2.2833 C.3       1 UNK         0.0000 
     22 C22        -2.0595    4.0979    1.2430 C.2       1 UNK         0.0000 
     23 C23        -2.0098    3.8871   -0.1264 C.2       1 UNK         0.0000 
     24 C24        -1.1106    2.9056   -0.8505 C.2       1 UNK         0.0000 
     25 O25        -0.1693    2.1326   -0.2549 O.co2     1 UNK         0.0000 
     26 O26        -1.1877    2.8412   -2.0623 O.co2     1 UNK         0.0000 
     27 C27        -3.0651    5.1169    1.8018 C.3       1 UNK         0.0000 
     28 S28        -4.7047    5.1118    0.9807 S.3       1 UNK         0.0000 
     29 C29        -3.9055    5.6500   -0.5542 C.3       1 UNK         0.0000 
     30 H30        -3.4119    6.6465   -0.5059 H         1 UNK         0.0000 
     31 N31        -2.9820    4.6025   -0.9089 N.am      1 UNK         0.0000 
     32 C32        -4.7166    5.3747   -1.8773 C.3       1 UNK         0.0000 
     33 H33        -5.7051    4.8835   -1.7457 H         1 UNK         0.0000 
     34 C34        -3.6333    4.3891   -2.0575 C.2       1 UNK         0.0000 
     35 O35        -3.4858    3.4979   -2.8711 O.2       1 UNK         0.0000 
     36 N36        -4.7048    6.4329   -2.8715 N.am      1 UNK         0.0000 
     37 C37        -5.4800    7.5467   -2.7245 C.2       1 UNK         0.0000 
     38 O38        -6.1255    7.6879   -1.6977 O.2       1 UNK         0.0000 
     39 C39        -5.5924    8.5573   -3.8277 C.2       1 UNK         0.0000 
     40 N40        -5.0342    8.2479   -4.9538 N.2       1 UNK         0.0000 
     41 O41        -5.0895    9.0152   -6.0271 O.3       1 UNK         0.0000 
     42 C42        -4.6704    8.5762   -7.2686 C.3       1 UNK         0.0000 
     43 C43        -4.9063    9.7070   -8.2806 C.3       1 UNK         0.0000 
     44 C44        -3.1633    8.2465   -7.2247 C.3       1 UNK         0.0000 
     45 C45        -5.4993    7.3697   -7.6784 C.2       1 UNK         0.0000 
     46 O46        -6.8404    7.4780   -7.7563 O.3       1 UNK         0.0000 
     47 O47        -4.9748    6.2946   -7.9272 O.2       1 UNK         0.0000 
     48 C48        -6.3860    9.8324   -3.6834 C.2       1 UNK         0.0000 
     49 N49        -6.6268   10.6417   -4.7547 N.2       1 UNK         0.0000 
     50 C50        -7.3606   11.7233   -4.4287 C.2       1 UNK         0.0000 
     51 N51        -7.7504   12.7011   -5.3708 N.pl3     1 UNK         0.0000 
     52 S52        -7.7534   11.7575   -2.8045 S.3       1 UNK         0.0000 
     53 C53        -6.9493   10.3110   -2.4904 C.2       1 UNK         0.0000 
     54 H54         1.6683   -2.0783    4.7180 H         1 UNK         0.0000 
     55 H55         0.9937   -3.3171    2.7450 H         1 UNK         0.0000 
     56 H56         2.4009    2.0325    6.2934 H         1 UNK         0.0000 
     57 H57         1.7252    3.7838    5.1638 H         1 UNK         0.0000 
     58 H58         2.7050    3.2406    3.8471 H         1 UNK         0.0000 
     59 H59        -0.2041    2.3450    4.4951 H         1 UNK         0.0000 
     60 H60         0.7040    1.8186    3.0537 H         1 UNK         0.0000 
     61 H61         1.9205    4.1176    2.1263 H         1 UNK         0.0000 
     62 H62         0.7047    4.0258    0.8715 H         1 UNK         0.0000 
     63 H63        -0.1686    6.2376    1.5642 H         1 UNK         0.0000 
     64 H64         1.6288    6.4234    1.5410 H         1 UNK         0.0000 
     65 H65         0.4404    7.0538    3.8678 H         1 UNK         0.0000 
     66 H66         1.6822    5.7472    3.9582 H         1 UNK         0.0000 
     67 H67        -0.4249    4.7285    4.9134 H         1 UNK         0.0000 
     68 H68        -1.3013    5.4539    3.5755 H         1 UNK         0.0000 
     69 H69        -1.0761    2.2811    1.8154 H         1 UNK         0.0000 
     70 H70        -2.0354    2.9411    3.0630 H         1 UNK         0.0000 
     71 H71        -2.6457    6.1415    1.7111 H         1 UNK         0.0000 
     72 H72        -3.2574    4.9517    2.8807 H         1 UNK         0.0000 
     73 H73        -4.1500    6.2961   -3.7305 H         1 UNK         0.0000 
     74 H74        -4.5951    9.3942   -9.3012 H         1 UNK         0.0000 
     75 H75        -4.3275   10.6116   -7.9949 H         1 UNK         0.0000 
     76 H76        -5.9822    9.9862   -8.3106 H         1 UNK         0.0000 
     77 H77        -2.8042    7.9172   -8.2242 H         1 UNK         0.0000 
     78 H78        -2.5811    9.1423   -6.9193 H         1 UNK         0.0000 
     79 H79        -2.9602    7.4350   -6.4937 H         1 UNK         0.0000 
     80 H80        -7.4783   12.6094   -6.3595 H         1 UNK         0.0000 
     81 H81        -8.3191   13.5078   -5.0747 H         1 UNK         0.0000 
     82 H82        -6.8978    9.8717   -1.5077 H         1 UNK         0.0000 
     83 C83        -1.8593   -3.7523    1.6239 C.ar      1 UNK         0.0000 
     84 C84        -1.4534   -2.6130    2.3500 C.ar      1 UNK         0.0000 
     85 C85        -1.4719   -1.3608    1.7289 C.ar      1 UNK         0.0000 
     86 O86        -0.7015   -0.2549    2.1326 O.co2     1 UNK         0.0000 
     87 C87        -2.1367   -1.2500    0.5162 C.ar      1 UNK         0.0000 
     88 O88        -2.0800    0.0000    0.0000 O.co2     1 UNK         0.0000 
     89 C89        -2.6175   -2.3641   -0.2069 C.ar      1 UNK         0.0000 
     90 Cl90       -3.4289   -2.0461   -1.7264 Cl        1 UNK         0.0000 
     91 C91        -2.3681   -3.6712    0.2941 C.ar      1 UNK         0.0000 
     92 C92        -2.5360   -5.0029   -0.4399 C.2       1 UNK         0.0000 
     93 O93        -2.7764   -5.9650    0.2774 O.2       1 UNK         0.0000 
     94 N94        -2.3089   -5.2986   -1.7777 N.am      1 UNK         0.0000 
     95 C95        -1.8773   -4.4855   -2.9178 C.3       1 UNK         0.0000 
     96 C96        -0.5384   -3.7351   -2.6687 C.3       1 UNK         0.0000 
     97 N97         0.0587   -2.9423   -3.8106 N.4       1 UNK         0.0000 
     98 C98        -0.8742   -1.9146   -4.3676 C.3       1 UNK         0.0000 
     99 C99        -0.7884   -2.0332   -5.8817 C.3       1 UNK         0.0000 
    100 C100       -0.7065   -3.5320   -6.0271 C.3       1 UNK         0.0000 
    101 C101        0.3461   -3.8424   -4.9704 C.3       1 UNK         0.0000 
    102 C102        1.2994   -2.2886   -3.2474 C.3       1 UNK         0.0000 
    103 C103        2.0574   -1.2466   -4.0972 C.2       1 UNK         0.0000 
    104 C104        2.0062    0.1252   -3.8848 C.2       1 UNK         0.0000 
    105 C105        1.1117    0.8493   -2.9043 C.2       1 UNK         0.0000 
    106 O106        0.1693    0.2549   -2.1326 O.co2     1 UNK         0.0000 
    107 O107        1.1898    2.0603   -2.8392 O.co2     1 UNK         0.0000 
    108 C108        3.0593   -1.8060   -5.1177 C.3       1 UNK         0.0000 
    109 S109        4.6985   -0.9847   -5.1175 S.3       1 UNK         0.0000 
    110 C110        3.8990    0.5519   -5.6494 C.3       1 UNK         0.0000 
    111 H111        3.4015    0.5038   -6.6456 H         1 UNK         0.0000 
    112 N112        2.9795    0.9067   -4.5985 N.am      1 UNK         0.0000 
    113 C113        4.7118    1.8735   -5.3746 C.3       1 UNK         0.0000 
    114 H114        5.7009    1.7396   -4.8875 H         1 UNK         0.0000 
    115 C115        3.6334    2.0484   -4.3846 C.2       1 UNK         0.0000 
    116 O116        3.4885    2.8689   -3.4927 O.2       1 UNK         0.0000 
    117 N117        4.6961    2.8687   -6.4314 N.am      1 UNK         0.0000 
    118 C118        5.4691    2.7221   -7.5472 C.2       1 UNK         0.0000 
    119 O119        6.1117    1.6941   -7.6921 O.2       1 UNK         0.0000 
    120 C120        5.5836    3.8278   -8.5560 C.2       1 UNK         0.0000 
    121 N121        5.0252    4.9541   -8.2475 N.2       1 UNK         0.0000 
    122 O122        5.0821    6.0269   -9.0146 O.3       1 UNK         0.0000 
    123 C123        4.6649    7.2701   -8.5773 C.3       1 UNK         0.0000 
    124 C124        4.8985    8.2797   -9.7101 C.3       1 UNK         0.0000 
    125 C125        3.1591    7.2259   -8.2451 C.3       1 UNK         0.0000 
    126 C126        5.4959    7.6799   -7.3723 C.2       1 UNK         0.0000 
    127 O127        6.8367    7.7576   -7.4828 O.2       1 UNK         0.0000 
    128 O128        4.9725    7.9292   -6.2969 O.3       1 UNK         0.0000 
    129 C129        6.3800    3.6832   -9.8314 C.2       1 UNK         0.0000 
    130 N130        6.6220    4.7538  -10.6409 N.2       1 UNK         0.0000 
    131 C131        7.3569    4.4316  -11.7229 C.2       1 UNK         0.0000 
    132 N132        7.7507    5.3714  -12.6992 N.pl3     1 UNK         0.0000 
    133 S133        7.7483    2.8042  -11.7572 S.3       1 UNK         0.0000 
    134 C134        6.9433    2.4900  -10.3112 C.2       1 UNK         0.0000 
    135 H135       -1.6717   -4.7179    2.0800 H         1 UNK         0.0000 
    136 H136       -0.9943   -2.7449    3.3173 H         1 UNK         0.0000 
    137 H137       -2.4111   -6.2978   -2.0264 H         1 UNK         0.0000 
    138 H138       -1.7288   -5.1736   -3.7786 H         1 UNK         0.0000 
    139 H139       -2.7074   -3.8542   -3.2385 H         1 UNK         0.0000 
    140 H140        0.2014   -4.5039   -2.3412 H         1 UNK         0.0000 
    141 H141       -0.7061   -3.0621   -1.8156 H         1 UNK         0.0000 
    142 H142       -1.9225   -2.1353   -4.1141 H         1 UNK         0.0000 
    143 H143       -0.7063   -0.8809   -4.0268 H         1 UNK         0.0000 
    144 H144        0.1627   -1.5794   -6.2388 H         1 UNK         0.0000 
    145 H145       -1.6351   -1.5584   -6.4218 H         1 UNK         0.0000 
    146 H146       -0.4449   -3.8858   -7.0476 H         1 UNK         0.0000 
    147 H147       -1.6845   -3.9740   -5.7390 H         1 UNK         0.0000 
    148 H148        0.4269   -4.9233   -4.7218 H         1 UNK         0.0000 
    149 H149        1.2991   -3.5845   -5.4511 H         1 UNK         0.0000 
    150 H150        1.0697   -1.8192   -2.2803 H         1 UNK         0.0000 
    151 H151        2.0331   -3.0666   -2.9367 H         1 UNK         0.0000 
    152 H152        2.6374   -1.7161   -6.1415 H         1 UNK         0.0000 
    153 H153        3.2527   -2.8846   -4.9512 H         1 UNK         0.0000 
    154 H154        4.1424    3.7284   -6.2931 H         1 UNK         0.0000 
    155 H155        4.5877    9.3009   -9.3984 H         1 UNK         0.0000 
    156 H156        4.3166    7.9921  -10.6127 H         1 UNK         0.0000 
    157 H157        5.9732    8.3087   -9.9925 H         1 UNK         0.0000 
    158 H158        2.7996    8.2252   -7.9157 H         1 UNK         0.0000 
    159 H159        2.5745    6.9192   -9.1393 H         1 UNK         0.0000 
    160 H160        2.9571    6.4952   -7.4328 H         1 UNK         0.0000 
    161 H161        7.4816    6.3614  -12.6055 H         1 UNK         0.0000 
    162 H162        8.3199    5.0760  -13.5051 H         1 UNK         0.0000 
    163 H163        6.8932    1.5067   -9.8739 H         1 UNK         0.0000 
    164 H164       -7.2148    6.6361   -8.0257 H         1 UNK         0.0000 
    165 H165        5.6490    8.1679   -5.6589 H         1 UNK         0.0000 
@<TRIPOS>BOND
     1    1    5 nc   
     2    1    7 nc   
     3    1   25 nc   
     4    1   86 nc   
     5    1   88 nc   
     6    1  106 nc   
     7    2   54 1    
     8    2    3 ar   
     9    2   10 ar   
    10    3   55 1    
    11    3    4 ar   
    12    4    5 1    
    13    4    6 ar   
    14    6    8 ar   
    15    6    7 1    
    16    8   10 ar   
    17    8    9 1    
    18   10   11 1    
    19   11   13 am   BACKBONE|DICT|INTERRES
    20   11   12 2    
    21   13   56 1    
    22   13   14 1    
    23   14   57 1    
    24   14   15 1    
    25   14   58 1    
    26   15   59 1    
    27   15   16 1    
    28   15   60 1    
    29   16   20 1    
    30   16   17 1    
    31   16   21 1    
    32   17   18 1    
    33   17   61 1    
    34   17   62 1    
    35   18   19 1    
    36   18   63 1    
    37   18   64 1    
    38   19   20 1    
    39   19   65 1    
    40   19   66 1    
    41   20   67 1    
    42   20   68 1    
    43   21   70 1    
    44   21   22 1    
    45   21   69 1    
    46   22   27 1    
    47   22   23 2    
    48   23   24 1    
    49   23   31 1    
    50   24   25 1    
    51   24   26 2    
    52   27   72 1    
    53   27   28 1    
    54   27   71 1    
    55   28   29 1    
    56   29   30 1    
    57   29   31 1    
    58   29   32 1    
    59   31   34 am   BACKBONE|DICT|INTERRES
    60   32   33 1    
    61   32   34 1    
    62   32   36 1    
    63   34   35 2    
    64   36   37 am   BACKBONE|DICT|INTERRES
    65   36   73 1    
    66   37   38 2    
    67   37   39 1    
    68   39   48 1    
    69   39   40 2    
    70   40   41 1    
    71   41   42 1    
    72   42   44 1    
    73   42   43 1    
    74   42   45 1    
    75   43   75 1    
    76   43   74 1    
    77   43   76 1    
    78   44   78 1    
    79   44   79 1    
    80   44   77 1    
    81   45   46 1    
    82   45   47 2    
    83   46  164 1    
    84   48   53 2    
    85   48   49 1    
    86   49   50 2    
    87   50   52 1    
    88   50   51 1    
    89   51   81 1    
    90   51   80 1    
    91   52   53 1    
    92   53   82 1    
    93   83  135 1    
    94   83   84 ar   
    95   83   91 ar   
    96   84  136 1    
    97   84   85 ar   
    98   85   86 1    
    99   85   87 ar   
   100   87   88 1    
   101   87   89 ar   
   102   89   91 ar   
   103   89   90 1    
   104   91   92 1    
   105   92   93 2    
   106   92   94 am   BACKBONE|DICT|INTERRES
   107   94   95 1    
   108   94  137 1    
   109   95   96 1    
   110   95  138 1    
   111   95  139 1    
   112   96  140 1    
   113   96  141 1    
   114   96   97 1    
   115   97  102 1    
   116   97   98 1    
   117   97  101 1    
   118   98  142 1    
   119   98  143 1    
   120   98   99 1    
   121   99  100 1    
   122   99  144 1    
   123   99  145 1    
   124  100  147 1    
   125  100  101 1    
   126  100  146 1    
   127  101  148 1    
   128  101  149 1    
   129  102  151 1    
   130  102  150 1    
   131  102  103 1    
   132  103  104 2    
   133  103  108 1    
   134  104  105 1    
   135  104  112 1    
   136  105  107 2    
   137  105  106 1    
   138  108  109 1    
   139  108  153 1    
   140  108  152 1    
   141  109  110 1    
   142  110  111 1    
   143  110  113 1    
   144  110  112 1    
   145  112  115 am   BACKBONE|DICT|INTERRES
   146  113  114 1    
   147  113  115 1    
   148  113  117 1    
   149  115  116 2    
   150  117  154 1    
   151  117  118 am   BACKBONE|DICT|INTERRES
   152  118  119 2    
   153  118  120 1    
   154  120  121 2    
   155  120  129 1    
   156  121  122 1    
   157  122  123 1    
   158  123  125 1    
   159  123  126 1    
   160  123  124 1    
   161  124  155 1    
   162  124  156 1    
   163  124  157 1    
   164  125  158 1    
   165  125  160 1    
   166  125  159 1    
   167  126  128 1    
   168  126  127 2    
   169  128  165 1    
   170  129  130 1    
   171  129  134 2    
   172  130  131 2    
   173  131  132 1    
   174  131  133 1    
   175  132  161 1    
   176  132  162 1    
   177  133  134 1    
   178  134  163 1    
@<TRIPOS>SUBSTRUCTURE
     1 UNK         1 GROUP             0       ****    0 ROOT    
@<TRIPOS>MOLECULE
279_c1
184   188    1
SMALL
USER_CHARGES


@<TRIPOS>ATOM
      1 Fe1         0.0306   -0.2811    0.2771 Fe        1 UNK         0.0000 
      2 C2         -1.3692    2.0296    3.9823 C.ar      1 UNK         0.0000 
      3 C3         -1.7772    2.0070    2.6466 C.ar      1 UNK         0.0000 
      4 C4         -0.8527    1.8440    1.6191 C.ar      1 UNK         0.0000 
      5 O5         -1.2911    1.8194    0.4219 O.co2     1 UNK         0.0000 
      6 C6          0.5184    1.7660    1.9403 C.ar      1 UNK         0.0000 
      7 O7          1.3980    1.4320    1.0840 O.co2     1 UNK         0.0000 
      8 C8          0.9259    2.0588    3.2532 C.ar      1 UNK         0.0000 
      9 Cl9         2.5329    2.6907    3.4749 Cl        1 UNK         0.0000 
     10 C10        -0.0078    2.0183    4.3071 C.ar      1 UNK         0.0000 
     11 C11         0.4182    2.0395    5.7549 C.2       1 UNK         0.0000 
     12 O12         0.6945    3.0936    6.3259 O.2       1 UNK         0.0000 
     13 N13         0.5476    0.8879    6.4454 N.am      1 UNK         0.0000 
     14 C14        -0.1591   -0.4030    6.3365 C.3       1 UNK         0.0000 
     15 C15        -0.0601   -1.2158    7.6754 C.3       1 UNK         0.0000 
     16 N16         0.1383   -2.6812    7.5783 N.3       1 UNK         0.0000 
     17 C17        -1.0396   -3.5226    7.8124 C.3       1 UNK         0.0000 
     18 C18        -0.7005   -4.3891    9.0221 C.3       1 UNK         0.0000 
     19 C19         0.7978   -4.5793    8.9076 C.3       1 UNK         0.0000 
     20 C20         1.2630   -3.2379    8.3489 C.3       1 UNK         0.0000 
     21 C21         2.2957   -5.7092    2.5094 C.3       1 UNK         0.0000 
     22 C22        -2.1240   -4.6718    2.7773 C.3       1 UNK         0.0000 
     23 C23        -2.7057   -4.0827    1.4553 C.3       1 UNK         0.0000 
     24 C24        -2.6457   -2.5111    1.4984 C.2       1 UNK         0.0000 
     25 O25        -1.4857   -1.9670    1.5041 O.co2     1 UNK         0.0000 
     26 O26        -3.7256   -1.9550    1.8063 O.co2     1 UNK         0.0000 
     27 C27        -3.1000   -4.9431    3.9383 C.3       1 UNK         0.0000 
     28 S28        -4.2509   -7.4141    1.7857 S.3       1 UNK         0.0000 
     29 C29        -4.9295   -5.7488    1.4288 C.3       1 UNK         0.0000 
     30 H30        -5.5116   -5.4126    2.2869 H         1 UNK         0.0000 
     31 N31        -3.9749   -4.6877    0.9273 N.am      1 UNK         0.0000 
     32 C32        -5.6648   -5.6227    0.0586 C.3       1 UNK         0.0000 
     33 H33        -6.5201   -4.9412   -0.0118 H         1 UNK         0.0000 
     34 C34        -4.2900   -5.0651   -0.3772 C.2       1 UNK         0.0000 
     35 O35        -3.6349   -5.2826   -1.3847 O.2       1 UNK         0.0000 
     36 N36        -5.9611   -6.8788   -0.6875 N.am      1 UNK         0.0000 
     37 C37        -6.3185   -6.8786   -1.9969 C.2       1 UNK         0.0000 
     38 O38        -6.9767   -5.9339   -2.4357 O.2       1 UNK         0.0000 
     39 C39        -5.8289   -8.0020   -2.8651 C.2       1 UNK         0.0000 
     40 N40        -5.4512   -9.0862   -2.2526 N.2       1 UNK         0.0000 
     41 O41        -4.8163  -10.0141   -3.1269 O.3       1 UNK         0.0000 
     42 C42        -4.6543  -11.3419   -2.5967 C.3       1 UNK         0.0000 
     43 C43        -3.4264  -11.3274   -1.6476 C.3       1 UNK         0.0000 
     44 C44        -5.9253  -11.8501   -1.8629 C.3       1 UNK         0.0000 
     45 C45        -4.4338  -12.2455   -3.8568 C.2       1 UNK         0.0000 
     46 O46        -3.4342  -13.1578   -3.7413 O.3       1 UNK         0.0000 
     47 O47        -5.1095  -12.1879   -4.8805 O.2       1 UNK         0.0000 
     48 C48        -5.7968   -7.7778   -4.3494 C.2       1 UNK         0.0000 
     49 N49        -5.9018   -8.7989   -5.1980 N.2       1 UNK         0.0000 
     50 C50        -5.7786   -8.4638   -6.4423 C.2       1 UNK         0.0000 
     51 N51        -5.7748   -9.3813   -7.4572 N.pl3     1 UNK         0.0000 
     52 S52        -5.6132   -6.7609   -6.7245 S.3       1 UNK         0.0000 
     53 C53        -5.6699   -6.5333   -4.9960 C.2       1 UNK         0.0000 
     54 H54        -2.1091    2.1322    4.7584 H         1 UNK         0.0000 
     55 H55        -2.8231    2.0964    2.3998 H         1 UNK         0.0000 
     56 H56         1.2484    0.9749    7.1620 H         1 UNK         0.0000 
     57 H57         0.2574   -0.9677    5.5061 H         1 UNK         0.0000 
     58 H58        -1.2020   -0.2221    6.0820 H         1 UNK         0.0000 
     59 H59         0.8333   -0.8438    8.1770 H         1 UNK         0.0000 
     60 H60        -0.8767   -0.9449    8.3464 H         1 UNK         0.0000 
     61 H61        -1.9486   -2.9502    8.0053 H         1 UNK         0.0000 
     62 H62        -1.2050   -4.1743    6.9503 H         1 UNK         0.0000 
     63 H63        -1.2384   -5.3355    8.9958 H         1 UNK         0.0000 
     64 H64        -0.9739   -3.8779    9.9432 H         1 UNK         0.0000 
     65 H65         1.0443   -5.3995    8.2325 H         1 UNK         0.0000 
     66 H66         1.2739   -4.8078    9.8621 H         1 UNK         0.0000 
     67 H67         2.0843   -3.4776    7.6759 H         1 UNK         0.0000 
     68 H68         1.6274   -2.5982    9.1540 H         1 UNK         0.0000 
     69 H69         2.8343   -6.6112    2.7965 H         1 UNK         0.0000 
     70 H70         2.9834   -4.8666    2.4259 H         1 UNK         0.0000 
     71 H71        -3.5713   -5.9210    3.8944 H         1 UNK         0.0000 
     72 H72        -3.8933   -4.1885    3.9427 H         1 UNK         0.0000 
     73 H73        -5.4486   -7.6948   -0.3893 H         1 UNK         0.0000 
     74 H74        -2.5283  -10.9840   -2.1636 H         1 UNK         0.0000 
     75 H75        -3.2229  -12.3198   -1.2434 H         1 UNK         0.0000 
     76 H76        -3.5892  -10.6623   -0.8001 H         1 UNK         0.0000 
     77 H77        -5.8734  -12.9149   -1.6326 H         1 UNK         0.0000 
     78 H78        -6.8168  -11.6698   -2.4650 H         1 UNK         0.0000 
     79 H79        -6.0671  -11.3276   -0.9174 H         1 UNK         0.0000 
     80 H80        -5.6160   -9.1418   -8.4236 H         1 UNK         0.0000 
     81 H81        -5.8283  -10.3671   -7.2268 H         1 UNK         0.0000 
     82 H82        -5.5855   -5.5430   -4.5628 H         1 UNK         0.0000 
     83 C83         1.1738   -4.1573   -2.1616 C.ar      1 UNK         0.0000 
     84 C84         1.7142   -2.8775   -2.0266 C.ar      1 UNK         0.0000 
     85 C85         0.8925   -1.7703   -1.8389 C.ar      1 UNK         0.0000 
     86 O86         1.4502   -0.6313   -1.7306 O.co2     1 UNK         0.0000 
     87 C87        -0.5048   -1.9504   -1.8380 C.ar      1 UNK         0.0000 
     88 O88        -1.3132   -1.0373   -1.4727 O.co2     1 UNK         0.0000 
     89 C89        -1.0330   -3.1879   -2.2451 C.ar      1 UNK         0.0000 
     90 Cl90       -2.6320   -3.2051   -2.9398 Cl        1 UNK         0.0000 
     91 C91        -0.2137   -4.3332   -2.2484 C.ar      1 UNK         0.0000 
     92 C92        -0.7884   -5.7254   -2.3715 C.2       1 UNK         0.0000 
     93 O93        -1.1756   -6.1701   -3.4499 O.2       1 UNK         0.0000 
     94 N94        -0.9179   -6.5082   -1.2835 N.am      1 UNK         0.0000 
     95 C95        -0.1838   -6.4981   -0.0089 C.3       1 UNK         0.0000 
     96 C96        -0.5352   -7.7575    0.8466 C.3       1 UNK         0.0000 
     97 N97        -0.1806   -7.7163    2.2853 N.3       1 UNK         0.0000 
     98 C98         2.0086   -7.0696    6.1964 C.3       1 UNK         0.0000 
     99 C99         0.1023   -9.7006    4.9417 C.3       1 UNK         0.0000 
    100 C100       -0.8435   -8.5229    4.6099 C.3       1 UNK         0.0000 
    101 C101       -1.1961   -8.3684    3.1169 C.3       1 UNK         0.0000 
    102 C102       -3.0690   -2.2152    5.6318 C.3       1 UNK         0.0000 
    103 C103        2.2691   -2.7727    4.8286 C.3       1 UNK         0.0000 
    104 C104        2.7043   -1.4232    4.1885 C.3       1 UNK         0.0000 
    105 C105        2.6144   -1.5323    2.6218 C.2       1 UNK         0.0000 
    106 O106        1.4444   -1.4930    2.0852 O.co2     1 UNK         0.0000 
    107 O107        3.6585   -1.9422    2.0752 O.co2     1 UNK         0.0000 
    108 C108        3.3354   -3.8824    4.9226 C.3       1 UNK         0.0000 
    109 S109        4.2783   -1.7748    7.4865 S.3       1 UNK         0.0000 
    110 C110        4.9355   -1.3146    5.8182 C.3       1 UNK         0.0000 
    111 H111        5.5586   -2.1245    5.4447 H         1 UNK         0.0000 
    112 N112        3.9419   -0.8198    4.7820 N.am      1 UNK         0.0000 
    113 C113        5.5749    0.1019    5.7072 C.3       1 UNK         0.0000 
    114 H114        6.3493    0.2559    4.9468 H         1 UNK         0.0000 
    115 C115        4.1216    0.4558    5.3181 C.2       1 UNK         0.0000 
    116 O116        3.3712    1.3136    5.7725 O.2       1 UNK         0.0000 
    117 N117        5.9480    0.8088    6.9598 N.am      1 UNK         0.0000 
    118 C118        6.3039    2.1187    6.9557 C.2       1 UNK         0.0000 
    119 O119        6.9536    2.5601    6.0043 O.2       1 UNK         0.0000 
    120 C120        5.8290    2.9847    8.0865 C.2       1 UNK         0.0000 
    121 N121        5.4621    2.3630    9.1665 N.2       1 UNK         0.0000 
    122 O122        4.8473    3.2224   10.1159 O.3       1 UNK         0.0000 
    123 C123        4.6611    2.6447   11.4195 C.3       1 UNK         0.0000 
    124 C124        3.4250    1.7071   11.3631 C.3       1 UNK         0.0000 
    125 C125        5.9223    1.8818   11.9107 C.3       1 UNK         0.0000 
    126 C126        4.4481    3.8772   12.3602 C.2       1 UNK         0.0000 
    127 O127        3.4321    3.7568   13.2530 O.3       1 UNK         0.0000 
    128 O128        5.1462    4.8869   12.3445 O.2       1 UNK         0.0000 
    129 C129        5.7963    4.4729    7.8710 C.2       1 UNK         0.0000 
    130 N130        5.8952    5.3242    8.8908 N.2       1 UNK         0.0000 
    131 C131        5.7773    6.5697    8.5464 C.2       1 UNK         0.0000 
    132 N132        5.7760    7.5933    9.4509 N.pl3     1 UNK         0.0000 
    133 S133        5.6167    6.8474    6.8444 S.3       1 UNK         0.0000 
    134 C134        5.6767    5.1217    6.6268 C.2       1 UNK         0.0000 
    135 H135        1.8365   -4.9989   -2.2724 H         1 UNK         0.0000 
    136 H136        2.7851   -2.7338   -2.0433 H         1 UNK         0.0000 
    137 H137       -1.6220   -7.2102   -1.4119 H         1 UNK         0.0000 
    138 H138       -0.3871   -5.5781    0.5318 H         1 UNK         0.0000 
    139 H139        0.8794   -6.4973   -0.2401 H         1 UNK         0.0000 
    140 H140       -1.5939   -7.9776    0.7147 H         1 UNK         0.0000 
    141 H141       -0.0002   -8.6093    0.4260 H         1 UNK         0.0000 
    142 H142        4.3367   -8.1860    4.0039 H         1 UNK         0.0000 
    143 H143        2.9076   -6.6477    6.6415 H         1 UNK         0.0000 
    144 H144        0.2184   -9.8446    6.0144 H         1 UNK         0.0000 
    145 H145       -0.2751  -10.6321    4.5306 H         1 UNK         0.0000 
    146 H146       -0.4561   -7.5957    5.0240 H         1 UNK         0.0000 
    147 H147       -1.7794   -8.6872    5.1497 H         1 UNK         0.0000 
    148 H148       -2.0975   -7.7631    3.0970 H         1 UNK         0.0000 
    149 H149       -1.4617   -9.3410    2.7026 H         1 UNK         0.0000 
    150 H150       -3.0695   -1.4077    6.3613 H         1 UNK         0.0000 
    151 H151       -3.5786   -1.8940    4.7224 H         1 UNK         0.0000 
    152 H152        3.9464   -3.8359    5.8169 H         1 UNK         0.0000 
    153 H153        2.8692   -4.8615    4.9553 H         1 UNK         0.0000 
    154 H154        5.4576    0.5017    7.7861 H         1 UNK         0.0000 
    155 H155        2.5368    2.2373   11.0164 H         1 UNK         0.0000 
    156 H156        3.2029    1.2800   12.3417 H         1 UNK         0.0000 
    157 H157        3.5930    0.8741   10.6805 H         1 UNK         0.0000 
    158 H158        5.8658    1.6213   12.9674 H         1 UNK         0.0000 
    159 H159        6.8224    2.4765   11.7481 H         1 UNK         0.0000 
    160 H160        6.0552    0.9498   11.3617 H         1 UNK         0.0000 
    161 H161        5.6457    8.5606    9.1950 H         1 UNK         0.0000 
    162 H162        5.8316    7.3764   10.4388 H         1 UNK         0.0000 
    163 H163        5.5877    4.6858    5.6378 H         1 UNK         0.0000 
    164 H164        1.5170   -5.4859    3.2394 H         1 UNK         0.0000 
    165 H165        1.8453   -5.8412    1.5350 H         1 UNK         0.0000 
    166 H166       -1.5824   -5.5724    2.5310 H         1 UNK         0.0000 
    167 H167       -1.3457   -4.0047    3.1561 H         1 UNK         0.0000 
    168 H168       -1.9618   -4.2717    0.6904 H         1 UNK         0.0000 
    169 H169       -2.5768   -4.9029    4.8900 H         1 UNK         0.0000 
    170 H170       -3.1228   -7.2103    1.0833 H         1 UNK         0.0000 
    171 H171       -3.4306  -13.5973   -4.5926 H         1 UNK         0.0000 
    172 H172       -0.0246   -6.7640    2.6030 H         1 UNK         0.0000 
    173 H173        1.5988   -7.8305    6.8545 H         1 UNK         0.0000 
    174 H174        2.2587   -7.5168    5.2311 H         1 UNK         0.0000 
    175 H175        1.2730   -6.2840    6.0415 H         1 UNK         0.0000 
    176 H176        1.0955   -9.5372    4.5292 H         1 UNK         0.0000 
    177 H177       -3.5753   -3.0812    6.0553 H         1 UNK         0.0000 
    178 H178       -2.0429   -2.4823    5.3708 H         1 UNK         0.0000 
    179 H179        1.9121   -2.5501    5.8183 H         1 UNK         0.0000 
    180 H180        1.3979   -3.1665    4.3033 H         1 UNK         0.0000 
    181 H181        1.9266   -0.6968    4.3762 H         1 UNK         0.0000 
    182 H182        4.0092   -3.8543    4.0662 H         1 UNK         0.0000 
    183 H183        3.1836   -1.0074    7.3754 H         1 UNK         0.0000 
    184 H184        3.4445    4.5947   13.7188 H         1 UNK         0.0000 
@<TRIPOS>BOND
     1    1    5 nc   
     2    1    7 nc   
     3    1   25 nc   
     4    1   86 nc   
     5    1   88 nc   
     6    1  106 nc   
     7    2   10 ar   
     8    2   54 1    
     9    2    3 ar   
    10    3    4 ar   
    11    3   55 1    
    12    4    6 ar   
    13    4    5 1    
    14    6    8 ar   
    15    6    7 1    
    16    8   10 ar   
    17    8    9 1    
    18   10   11 1    
    19   11   12 2    
    20   11   13 am   BACKBONE|DICT|INTERRES
    21   13   14 1    
    22   13   56 1    
    23   14   15 1    
    24   14   58 1    
    25   14   57 1    
    26   15   59 1    
    27   15   60 1    
    28   15   16 1    
    29   16   17 1    
    30   16   20 1    
    31   17   61 1    
    32   17   18 1    
    33   17   62 1    
    34   18   63 1    
    35   18   64 1    
    36   18   19 1    
    37   19   66 1    
    38   19   20 1    
    39   19   65 1    
    40   20   68 1    
    41   20   67 1    
    42   21   69 1    
    43   21   70 1    
    44   21  164 1    
    45   21  165 1    
    46   22   27 1    
    47   22   23 1    
    48   22  166 1    
    49   22  167 1    
    50   23   24 1    
    51   23   31 1    
    52   23  168 1    
    53   24   26 2    
    54   24   25 1    
    55   27   72 1    
    56   27   71 1    
    57   27  169 1    
    58   28   29 1    
    59   28  170 1    
    60   29   30 1    
    61   29   31 1    
    62   29   32 1    
    63   31   34 am   BACKBONE|DICT|INTERRES
    64   32   33 1    
    65   32   34 1    
    66   32   36 1    
    67   34   35 2    
    68   36   73 1    
    69   36   37 am   BACKBONE|DICT|INTERRES
    70   37   38 2    
    71   37   39 1    
    72   39   40 2    
    73   39   48 1    
    74   40   41 1    
    75   41   42 1    
    76   42   44 1    
    77   42   43 1    
    78   42   45 1    
    79   43   75 1    
    80   43   76 1    
    81   43   74 1    
    82   44   77 1    
    83   44   79 1    
    84   44   78 1    
    85   45   46 1    
    86   45   47 2    
    87   46  171 1    
    88   48   49 1    
    89   48   53 2    
    90   49   50 2    
    91   50   51 1    
    92   50   52 1    
    93   51   81 1    
    94   51   80 1    
    95   52   53 1    
    96   53   82 1    
    97   83   91 ar   
    98   83   84 ar   
    99   83  135 1    
   100   84   85 ar   
   101   84  136 1    
   102   85   87 ar   
   103   85   86 1    
   104   87   89 ar   
   105   87   88 1    
   106   89   90 1    
   107   89   91 ar   
   108   91   92 1    
   109   92   94 am   BACKBONE|DICT|INTERRES
   110   92   93 2    
   111   94   95 1    
   112   94  137 1    
   113   95  138 1    
   114   95   96 1    
   115   95  139 1    
   116   96  141 1    
   117   96   97 1    
   118   96  140 1    
   119   97  101 1    
   120   97  172 1    
   121   98  143 1    
   122   98  173 1    
   123   98  174 1    
   124   98  175 1    
   125   99  100 1    
   126   99  144 1    
   127   99  145 1    
   128   99  176 1    
   129  100  147 1    
   130  100  146 1    
   131  100  101 1    
   132  101  148 1    
   133  101  149 1    
   134  102  150 1    
   135  102  151 1    
   136  102  177 1    
   137  102  178 1    
   138  103  108 1    
   139  103  104 1    
   140  103  179 1    
   141  103  180 1    
   142  104  112 1    
   143  104  105 1    
   144  104  181 1    
   145  105  106 1    
   146  105  107 2    
   147  108  152 1    
   148  108  153 1    
   149  108  182 1    
   150  109  110 1    
   151  109  183 1    
   152  110  111 1    
   153  110  113 1    
   154  110  112 1    
   155  112  115 am   BACKBONE|DICT|INTERRES
   156  113  114 1    
   157  113  117 1    
   158  113  115 1    
   159  115  116 2    
   160  117  154 1    
   161  117  118 am   BACKBONE|DICT|INTERRES
   162  118  120 1    
   163  118  119 2    
   164  120  121 2    
   165  120  129 1    
   166  121  122 1    
   167  122  123 1    
   168  123  124 1    
   169  123  125 1    
   170  123  126 1    
   171  124  156 1    
   172  124  155 1    
   173  124  157 1    
   174  125  158 1    
   175  125  159 1    
   176  125  160 1    
   177  126  128 2    
   178  126  127 1    
   179  127  184 1    
   180  129  130 1    
   181  129  134 2    
   182  130  131 2    
   183  131  132 1    
   184  131  133 1    
   185  132  162 1    
   186  132  161 1    
   187  133  134 1    
   188  134  163 1    
@<TRIPOS>SUBSTRUCTURE
     1 UNK         1 GROUP             0       ****    0 ROOT    
@<TRIPOS>MOLECULE
281_c1
168   181    1
SMALL
USER_CHARGES


@<TRIPOS>ATOM
      1 Fe1         0.0079    0.0233   -0.0151 Fe        1 UNK         0.0000 
      2 C2          1.9954    1.7744   -3.7036 C.ar      1 UNK         0.0000 
      3 C3          1.5694    2.4066   -2.5360 C.ar      1 UNK         0.0000 
      4 C4          1.5692    1.7173   -1.3218 C.ar      1 UNK         0.0000 
      5 O5          0.9085    2.2097   -0.3395 O.co2     1 UNK         0.0000 
      6 C6          2.1663    0.4420   -1.2585 C.ar      1 UNK         0.0000 
      7 O7          2.1496   -0.2338   -0.1892 O.co2     1 UNK         0.0000 
      8 C8          2.7130   -0.1507   -2.4083 C.ar      1 UNK         0.0000 
      9 Cl9         3.5291   -1.6966   -2.3084 Cl        1 UNK         0.0000 
     10 C10         2.4880    0.4631   -3.6532 C.ar      1 UNK         0.0000 
     11 C11         2.7082   -0.2876   -4.9363 C.2       1 UNK         0.0000 
     12 O12         3.4260    0.1455   -5.8277 O.2       1 UNK         0.0000 
     13 N13         2.0377   -1.4387   -5.1458 N.am      1 UNK         0.0000 
     14 C14         0.9919   -2.0817   -4.3288 C.3       1 UNK         0.0000 
     15 C15         1.2424   -3.6066   -4.2309 C.3       1 UNK         0.0000 
     16 N16         0.3271   -4.4472   -3.2559 N.4       1 UNK         0.0000 
     17 C17        -1.1833   -4.0533   -3.3198 C.3       1 UNK         0.0000 
     18 C18        -1.9428   -5.3043   -3.7706 C.3       1 UNK         0.0000 
     19 C19        -0.9532   -6.0150   -4.6714 C.3       1 UNK         0.0000 
     20 C20         0.3351   -5.8890   -3.8757 C.3       1 UNK         0.0000 
     21 C21         0.8832   -4.4233   -1.7879 C.3       1 UNK         0.0000 
     22 C22         0.1217   -5.2504   -0.7005 C.2       1 UNK         0.0000 
     23 C23        -0.7262   -4.6011    0.4352 C.3       1 UNK         0.0000 
     24 C24        -1.0062   -3.0937    0.6092 C.2       1 UNK         0.0000 
     25 O25        -0.3927   -2.2314   -0.0832 O.co2     1 UNK         0.0000 
     26 O26        -1.7617   -2.7887    1.5526 O.co2     1 UNK         0.0000 
     27 C27         0.3581   -6.5956   -0.6377 C.2       1 UNK         0.0000 
     28 S28        -0.4096   -7.8353    0.4333 S.3       1 UNK         0.0000 
     29 C29        -1.5397   -6.8017    1.4262 C.3       1 UNK         0.0000 
     30 H30        -1.0797   -6.6445    2.4065 H         1 UNK         0.0000 
     31 N31        -1.8194   -5.5383    0.7330 N.am      1 UNK         0.0000 
     32 C32        -3.0702   -7.0790    1.4121 C.3       1 UNK         0.0000 
     33 H33        -3.4515   -7.7684    0.6568 H         1 UNK         0.0000 
     34 C34        -3.1901   -5.5609    0.9950 C.2       1 UNK         0.0000 
     35 O35        -4.0959   -4.7328    0.8760 O.2       1 UNK         0.0000 
     36 N36        -3.6158   -7.5292    2.7148 N.am      1 UNK         0.0000 
     37 C37        -4.8769   -7.3695    3.1704 C.2       1 UNK         0.0000 
     38 O38        -5.7185   -6.8180    2.4583 O.2       1 UNK         0.0000 
     39 C39        -5.1769   -7.9292    4.5236 C.2       1 UNK         0.0000 
     40 N40        -6.4199   -8.2325    4.6682 N.2       1 UNK         0.0000 
     41 O41        -6.8088   -8.6666    5.9564 O.3       1 UNK         0.0000 
     42 C42        -8.2058   -9.0394    6.0599 C.3       1 UNK         0.0000 
     43 C43        -8.1698  -10.5413    6.4090 C.3       1 UNK         0.0000 
     44 C44        -9.0812   -8.8500    4.7790 C.3       1 UNK         0.0000 
     45 C45        -8.8026   -8.2272    7.2524 C.2       1 UNK         0.0000 
     46 O46        -9.8685   -7.6152    7.2216 O.2       1 UNK         0.0000 
     47 O47        -8.0473   -8.2712    8.3793 O.3       1 UNK         0.0000 
     48 C48        -4.0904   -8.1132    5.5455 C.2       1 UNK         0.0000 
     49 N49        -4.2018   -9.0467    6.4928 N.2       1 UNK         0.0000 
     50 C50        -3.2138   -9.0648    7.3331 C.2       1 UNK         0.0000 
     51 N51        -3.1805   -9.8940    8.4216 N.pl3     1 UNK         0.0000 
     52 S52        -1.9432   -7.9412    6.9810 S.3       1 UNK         0.0000 
     53 C53        -2.8782   -7.3907    5.6135 C.2       1 UNK         0.0000 
     54 H54         1.8899    2.2907   -4.6509 H         1 UNK         0.0000 
     55 H55         1.1539    3.4030   -2.5886 H         1 UNK         0.0000 
     56 H56         2.2510   -1.8384   -6.0505 H         1 UNK         0.0000 
     57 H57         0.0601   -1.8745   -4.8546 H         1 UNK         0.0000 
     58 H58         0.8748   -1.6485   -3.3374 H         1 UNK         0.0000 
     59 H59         1.0831   -4.0153   -5.2328 H         1 UNK         0.0000 
     60 H60         2.2725   -3.8379   -3.9416 H         1 UNK         0.0000 
     61 H61        -1.3167   -3.2963   -4.0876 H         1 UNK         0.0000 
     62 H62        -1.5263   -3.6447   -2.3659 H         1 UNK         0.0000 
     63 H63        -2.8611   -5.0555   -4.3051 H         1 UNK         0.0000 
     64 H64        -2.2259   -5.9138   -2.9078 H         1 UNK         0.0000 
     65 H65        -1.2315   -7.0574   -4.8372 H         1 UNK         0.0000 
     66 H66        -0.8610   -5.5327   -5.6457 H         1 UNK         0.0000 
     67 H67         1.2461   -6.0858   -4.4467 H         1 UNK         0.0000 
     68 H68         0.2739   -6.6465   -3.1118 H         1 UNK         0.0000 
     69 H69         1.0418   -3.3830   -1.5235 H         1 UNK         0.0000 
     70 H70         1.8909   -4.8233   -1.8940 H         1 UNK         0.0000 
     71 H71        -3.0180   -8.1123    3.2789 H         1 UNK         0.0000 
     72 H72        -9.1642  -10.9314    6.6403 H         1 UNK         0.0000 
     73 H73        -7.5148  -10.7378    7.2612 H         1 UNK         0.0000 
     74 H74        -7.7796  -11.1139    5.5652 H         1 UNK         0.0000 
     75 H75        -8.6827   -9.4204    3.9409 H         1 UNK         0.0000 
     76 H76        -9.1220   -7.8048    4.4699 H         1 UNK         0.0000 
     77 H77       -10.1064   -9.1911    4.9372 H         1 UNK         0.0000 
     78 H78        -2.4494   -9.8793    9.1207 H         1 UNK         0.0000 
     79 H79        -3.9751  -10.4949    8.6059 H         1 UNK         0.0000 
     80 H80        -2.5219   -6.5701    4.9984 H         1 UNK         0.0000 
     81 C81        -2.0939    3.7893   -1.7894 C.ar      1 UNK         0.0000 
     82 C82        -1.6441    2.6481   -2.4439 C.ar      1 UNK         0.0000 
     83 C83        -1.6084    1.4347   -1.7603 C.ar      1 UNK         0.0000 
     84 O84        -0.8240    0.4166   -2.2370 O.3       1 UNK         0.0000 
     85 C85        -2.1806    1.3209   -0.4928 C.ar      1 UNK         0.0000 
     86 O86        -2.1595    0.2092    0.1097 O.co2     1 UNK         0.0000 
     87 C87        -2.7231    2.4471    0.1382 C.ar      1 UNK         0.0000 
     88 Cl88       -3.5048    2.2985    1.6959 Cl        1 UNK         0.0000 
     89 C89        -2.5385    3.7079   -0.4634 C.ar      1 UNK         0.0000 
     90 C90        -2.7444    4.9794    0.3057 C.2       1 UNK         0.0000 
     91 O91        -3.4376    5.8911   -0.1327 O.2       1 UNK         0.0000 
     92 N92        -2.0893    5.1579    1.4658 N.am      1 UNK         0.0000 
     93 C93        -1.0000    4.3576    2.0556 C.3       1 UNK         0.0000 
     94 C94        -1.2075    4.2388    3.5892 C.3       1 UNK         0.0000 
     95 N95        -0.2392    3.2981    4.3933 N.4       1 UNK         0.0000 
     96 C96         1.2550    3.5020    3.9838 C.3       1 UNK         0.0000 
     97 C97         1.9935    3.9576    5.2462 C.3       1 UNK         0.0000 
     98 C98         0.9453    4.7247    6.0259 C.3       1 UNK         0.0000 
     99 C99        -0.2753    3.8284    5.8677 C.3       1 UNK         0.0000 
    100 C100       -0.6949    1.7924    4.2951 C.3       1 UNK         0.0000 
    101 C101        0.1820    0.7787    5.1429 C.3       1 UNK         0.0000 
    102 C102        0.6491   -0.6401    4.6172 C.3       1 UNK         0.0000 
    103 C103        0.8398   -0.9250    3.1052 C.2       1 UNK         0.0000 
    104 O104        0.2849   -0.1806    2.2484 O.co2     1 UNK         0.0000 
    105 O105        1.4299   -1.9828    2.8133 O.co2     1 UNK         0.0000 
    106 C106       -0.4535    0.4943    6.5363 C.3       1 UNK         0.0000 
    107 S107        0.8439    0.1936    7.7733 S.3       1 UNK         0.0000 
    108 C108        1.5731   -1.2866    6.9884 C.3       1 UNK         0.0000 
    109 H109        0.9825   -2.1599    7.2677 H         1 UNK         0.0000 
    110 N110        1.7225   -1.1222    5.5184 N.am      1 UNK         0.0000 
    111 C111        3.1165   -1.4113    7.0886 C.3       1 UNK         0.0000 
    112 H112        3.6281   -0.6691    7.7061 H         1 UNK         0.0000 
    113 C113        3.1140   -1.0667    5.5493 C.2       1 UNK         0.0000 
    114 O114        3.9556   -0.6799    4.7393 O.2       1 UNK         0.0000 
    115 N115        3.6066   -2.7376    7.5304 N.am      1 UNK         0.0000 
    116 C116        4.8658   -3.2013    7.3661 C.2       1 UNK         0.0000 
    117 O117        5.7017   -2.5044    6.7894 O.2       1 UNK         0.0000 
    118 C118        5.1777   -4.5447    7.9469 C.2       1 UNK         0.0000 
    119 N119        6.4209   -4.6768    8.2518 N.2       1 UNK         0.0000 
    120 O120        6.8133   -5.9656    8.6796 O.3       1 UNK         0.0000 
    121 C121        8.2102   -6.0698    9.0457 C.3       1 UNK         0.0000 
    122 C122        8.1790   -6.4181   10.5476 C.3       1 UNK         0.0000 
    123 C123        9.0853   -4.7904    8.8513 C.3       1 UNK         0.0000 
    124 C124        8.8035   -7.2629    8.2311 C.2       1 UNK         0.0000 
    125 O125        9.8675   -7.2330    7.6153 O.2       1 UNK         0.0000 
    126 O126        8.0484   -8.3898    8.2752 O.3       1 UNK         0.0000 
    127 C127        4.0973   -5.5708    8.1395 C.2       1 UNK         0.0000 
    128 N128        4.2133   -6.5202    9.0747 N.2       1 UNK         0.0000 
    129 C129        3.2224   -7.3591    9.0945 C.2       1 UNK         0.0000 
    130 N130        3.1820   -8.4485    9.9260 N.pl3     1 UNK         0.0000 
    131 S131        1.9518   -7.0096    7.9679 S.3       1 UNK         0.0000 
    132 C132        2.8835   -5.6406    7.4187 C.2       1 UNK         0.0000 
    133 H133       -1.9940    4.7480   -2.2816 H         1 UNK         0.0000 
    134 H134       -1.2151    2.7433   -3.4299 H         1 UNK         0.0000 
    135 H135       -0.4107    0.7650   -3.0381 H         1 UNK         0.0000 
    136 H136       -2.2701    6.0727    1.8515 H         1 UNK         0.0000 
    137 H137       -0.0882    4.9046    1.8139 H         1 UNK         0.0000 
    138 H138       -0.8587    3.3779    1.5999 H         1 UNK         0.0000 
    139 H139       -1.0615    5.2355    4.0077 H         1 UNK         0.0000 
    140 H140       -2.2187    3.9159    3.8433 H         1 UNK         0.0000 
    141 H141        1.3182    4.3113    3.2610 H         1 UNK         0.0000 
    142 H142        1.6651    2.5983    3.5270 H         1 UNK         0.0000 
    143 H143        2.8540    4.5823    5.0057 H         1 UNK         0.0000 
    144 H144        2.3670    3.0978    5.8083 H         1 UNK         0.0000 
    145 H145        1.2284    4.8533    7.0728 H         1 UNK         0.0000 
    146 H146        0.7709    5.7161    5.6066 H         1 UNK         0.0000 
    147 H147       -1.2262    4.3138    6.1066 H         1 UNK         0.0000 
    148 H148       -0.1303    3.0122    6.5606 H         1 UNK         0.0000 
    149 H149       -0.7130    1.6182    3.2285 H         1 UNK         0.0000 
    150 H150       -1.7400    1.7753    4.6108 H         1 UNK         0.0000 
    151 H151       -1.1364    1.2518    6.9094 H         1 UNK         0.0000 
    152 H152       -1.0549   -0.4189    6.5240 H         1 UNK         0.0000 
    153 H153        2.9970   -3.2890    8.1141 H         1 UNK         0.0000 
    154 H154        9.1749   -6.6494   10.9348 H         1 UNK         0.0000 
    155 H155        7.5242   -7.2696   10.7476 H         1 UNK         0.0000 
    156 H156        7.7909   -5.5736   11.1205 H         1 UNK         0.0000 
    157 H157        8.6880   -3.9517    9.4222 H         1 UNK         0.0000 
    158 H158        9.1192   -4.4843    7.8045 H         1 UNK         0.0000 
    159 H159       10.1123   -4.9476    9.1875 H         1 UNK         0.0000 
    160 H160        2.4526   -9.1491    9.8981 H         1 UNK         0.0000 
    161 H161        3.9751   -8.6447   10.5260 H         1 UNK         0.0000 
    162 H162        2.5279   -5.0217    6.5990 H         1 UNK         0.0000 
    163 H163       -0.1171   -4.6865    1.3368 H         1 UNK         0.0000 
    164 H164       -8.5202   -7.7313    9.0112 H         1 UNK         0.0000 
    165 H165        1.1131    1.3056    5.3271 H         1 UNK         0.0000 
    166 H166       -0.1557   -1.3525    4.7844 H         1 UNK         0.0000 
    167 H167        8.5219   -9.0209    7.7344 H         1 UNK         0.0000 
    168 H168        1.0673   -7.0264   -1.3223 H         1 UNK         0.0000 
@<TRIPOS>BOND
     1    1    5 nc   
     2    1    7 nc   
     3    1   25 nc   
     4    1   84 nc   
     5    1   86 nc   
     6    1  104 nc   
     7    2   10 ar   
     8    2    3 ar   
     9    2   54 1    
    10    3    4 ar   
    11    3   55 1    
    12    4    6 ar   
    13    4    5 1    
    14    6    7 1    
    15    6    8 ar   
    16    8    9 1    
    17    8   10 ar   
    18   10   11 1    
    19   11   12 2    
    20   11   13 am   BACKBONE|DICT|INTERRES
    21   13   14 1    
    22   13   56 1    
    23   14   15 1    
    24   14   58 1    
    25   14   57 1    
    26   15   60 1    
    27   15   16 1    
    28   15   59 1    
    29   16   21 1    
    30   16   17 1    
    31   16   20 1    
    32   17   62 1    
    33   17   18 1    
    34   17   61 1    
    35   18   64 1    
    36   18   19 1    
    37   18   63 1    
    38   19   20 1    
    39   19   65 1    
    40   19   66 1    
    41   20   68 1    
    42   20   67 1    
    43   21   70 1    
    44   21   69 1    
    45   21   22 1    
    46   22   27 2    
    47   22   23 1    
    48   23   24 1    
    49   23   31 1    
    50   23  163 1    
    51   24   26 2    
    52   24   25 1    
    53   27   28 1    
    54   27  168 1    
    55   28   29 1    
    56   29   32 1    
    57   29   30 1    
    58   29   31 1    
    59   31   34 am   BACKBONE|DICT|INTERRES
    60   32   33 1    
    61   32   36 1    
    62   32   34 1    
    63   34   35 2    
    64   36   71 1    
    65   36   37 am   BACKBONE|DICT|INTERRES
    66   37   39 1    
    67   37   38 2    
    68   39   40 2    
    69   39   48 1    
    70   40   41 1    
    71   41   42 1    
    72   42   43 1    
    73   42   45 1    
    74   42   44 1    
    75   43   72 1    
    76   43   73 1    
    77   43   74 1    
    78   44   77 1    
    79   44   75 1    
    80   44   76 1    
    81   45   47 1    
    82   45   46 2    
    83   47  164 1    
    84   48   53 2    
    85   48   49 1    
    86   49   50 2    
    87   50   51 1    
    88   50   52 1    
    89   51   79 1    
    90   51   78 1    
    91   52   53 1    
    92   53   80 1    
    93   81   89 ar   
    94   81   82 ar   
    95   81  133 1    
    96   82   83 ar   
    97   82  134 1    
    98   83   85 ar   
    99   83   84 1    
   100   84  135 1    
   101   85   86 1    
   102   85   87 ar   
   103   87   88 1    
   104   87   89 ar   
   105   89   90 1    
   106   90   92 am   BACKBONE|DICT|INTERRES
   107   90   91 2    
   108   92  136 1    
   109   92   93 1    
   110   93   94 1    
   111   93  137 1    
   112   93  138 1    
   113   94  140 1    
   114   94  139 1    
   115   94   95 1    
   116   95   99 1    
   117   95   96 1    
   118   95  100 1    
   119   96   97 1    
   120   96  141 1    
   121   96  142 1    
   122   97  144 1    
   123   97   98 1    
   124   97  143 1    
   125   98  145 1    
   126   98   99 1    
   127   98  146 1    
   128   99  147 1    
   129   99  148 1    
   130  100  150 1    
   131  100  101 1    
   132  100  149 1    
   133  101  106 1    
   134  101  102 1    
   135  101  165 1    
   136  102  103 1    
   137  102  110 1    
   138  102  166 1    
   139  103  104 1    
   140  103  105 2    
   141  106  152 1    
   142  106  151 1    
   143  106  107 1    
   144  107  108 1    
   145  108  111 1    
   146  108  109 1    
   147  108  110 1    
   148  110  113 am   BACKBONE|DICT|INTERRES
   149  111  112 1    
   150  111  115 1    
   151  111  113 1    
   152  113  114 2    
   153  115  153 1    
   154  115  116 am   BACKBONE|DICT|INTERRES
   155  116  118 1    
   156  116  117 2    
   157  118  119 2    
   158  118  127 1    
   159  119  120 1    
   160  120  121 1    
   161  121  122 1    
   162  121  123 1    
   163  121  124 1    
   164  122  155 1    
   165  122  154 1    
   166  122  156 1    
   167  123  159 1    
   168  123  157 1    
   169  123  158 1    
   170  124  126 1    
   171  124  125 2    
   172  126  167 1    
   173  127  128 1    
   174  127  132 2    
   175  128  129 2    
   176  129  130 1    
   177  129  131 1    
   178  130  160 1    
   179  130  161 1    
   180  131  132 1    
   181  132  162 1    
@<TRIPOS>SUBSTRUCTURE
     1 UNK         1 GROUP             0       ****    0 ROOT    
@<TRIPOS>MOLECULE
007_c1
106   111    1
SMALL
USER_CHARGES


@<TRIPOS>ATOM
      1 C1         -9.6125  -18.1863   -5.3763 C.3       1 UNK         0.0000 
      2 C2         -8.2264  -18.7737   -4.9309 C.3       1 UNK         0.0000 
      3 C3        -10.3811  -19.0997   -6.3965 C.3       1 UNK         0.0000 
      4 O4        -11.5863  -16.8301   -8.2708 O.2       1 UNK         0.0000 
      5 C5        -11.8651  -18.7271   -6.7485 C.3       1 UNK         0.0000 
      6 C6        -11.9454  -17.2643   -7.1671 C.2       1 UNK         0.0000 
      7 N7        -12.4263  -19.6709   -7.7620 N.3       1 UNK         0.0000 
      8 O8        -12.3813  -16.5055   -6.1397 O.3       1 UNK         0.0000 
      9 C9        -12.2934  -15.0993   -6.1787 C.3       1 UNK         0.0000 
     10 N10        -7.3853  -17.9339   -4.0298 N.am      1 UNK         0.0000 
     11 C11        -7.3081  -18.0745   -2.6794 C.2       1 UNK         0.0000 
     12 C12        -7.5367  -19.3194   -1.9979 C.2       1 UNK         0.0000 
     13 O13        -6.9152  -17.0921   -2.0282 O.co2     1 UNK         0.0000 
     14 O14        -6.7073  -16.9292   -4.6361 O.co2     1 UNK         0.0000 
     15 C15        -6.8728  -20.4827   -2.2166 C.2       1 UNK         0.0000 
     16 C16        -6.9587  -21.6241   -1.2062 C.3       1 UNK         0.0000 
     17 C17        -5.9253  -20.7778   -3.3885 C.3       1 UNK         0.0000 
     18 C18        -7.5665  -21.2728    0.1731 C.3       1 UNK         0.0000 
     19 O19        -7.1568  -22.2177    1.1354 O.3       1 UNK         0.0000 
     20 C20       -10.0436  -13.3572   -5.3147 C.3       1 UNK         0.0000 
     21 C21       -10.9063  -14.0754   -4.2624 C.2       1 UNK         0.0000 
     22 C22       -12.2776  -14.5773   -4.7131 C.3       1 UNK         0.0000 
     23 C23       -10.4791  -14.3506   -2.9986 C.2       1 UNK         0.0000 
     24 C24        -9.0766  -14.5084   -2.7366 C.2       1 UNK         0.0000 
     25 O25        -8.4387  -15.2571   -3.4867 O.co2     1 UNK         0.0000 
     26 N26        -8.4031  -13.9485   -1.7162 N.am      1 UNK         0.0000 
     27 O27        -7.1161  -14.2704   -1.5460 O.co2     1 UNK         0.0000 
     28 C28        -8.8350  -12.7717   -0.9079 C.3       1 UNK         0.0000 
     29 N29        -5.8156  -10.0058    2.1314 N.am      1 UNK         0.0000 
     30 C30        -6.6785  -11.2000    2.1758 C.3       1 UNK         0.0000 
     31 C31        -7.4907  -11.3907    0.8461 C.3       1 UNK         0.0000 
     32 C32        -8.2674  -12.7003    0.5634 C.3       1 UNK         0.0000 
     33 C33        -4.5580  -10.0422    1.6679 C.2       1 UNK         0.0000 
     34 C34        -3.8804  -11.4506    1.6722 C.3       1 UNK         0.0000 
     35 C35        -5.9241  -12.4817    2.6570 C.2       1 UNK         0.0000 
     36 N36        -4.6196  -12.5277    2.3609 N.am      1 UNK         0.0000 
     37 O37        -4.0052   -8.9888    1.3769 O.2       1 UNK         0.0000 
     38 O38        -6.3912  -13.3911    3.3265 O.2       1 UNK         0.0000 
     39 C39        -5.3134  -11.8780   -3.9941 C.2       1 UNK         0.0000 
     40 C40        -5.2615  -13.2899   -3.7399 C.2       1 UNK         0.0000 
     41 O41        -6.1538  -13.9668   -4.2737 O.co2     1 UNK         0.0000 
     42 N42        -4.4592  -13.9312   -2.8491 N.am      1 UNK         0.0000 
     43 O43        -4.5873  -15.2577   -2.6048 O.co2     1 UNK         0.0000 
     44 C44        -3.3180  -11.8366    0.2762 C.3       1 UNK         0.0000 
     45 C45        -4.3011  -12.4569   -0.7524 C.3       1 UNK         0.0000 
     46 C46        -3.5700  -13.2224   -1.8876 C.3       1 UNK         0.0000 
     47 C47        -4.5051  -11.2551   -4.8849 C.2       1 UNK         0.0000 
     48 C48        -5.1698  -10.4573   -6.0170 C.3       1 UNK         0.0000 
     49 C49        -2.9897  -11.4156   -4.9971 C.3       1 UNK         0.0000 
     50 C50        -6.4401  -11.1758   -6.5790 C.3       1 UNK         0.0000 
     51 H51        -7.3850  -11.0257    2.9917 H         1 UNK         0.0000 
     52 H52        -3.0040  -11.2098    2.2868 H         1 UNK         0.0000 
     53 O53        -6.9208  -10.5756   -7.7598 O.3       1 UNK         0.0000 
     54 H54        -9.4493  -17.1980   -5.8133 H         1 UNK         0.0000 
     55 H55       -10.2369  -18.0379   -4.4946 H         1 UNK         0.0000 
     56 H56        -7.6498  -18.9490   -5.8478 H         1 UNK         0.0000 
     57 H57        -8.4141  -19.7884   -4.5527 H         1 UNK         0.0000 
     58 H58       -10.3903  -20.1131   -5.9972 H         1 UNK         0.0000 
     59 H59        -9.8197  -19.1569   -7.3339 H         1 UNK         0.0000 
     60 H60       -12.4593  -18.8285   -5.8429 H         1 UNK         0.0000 
     61 H61       -11.8522  -19.6639   -8.5997 H         1 UNK         0.0000 
     62 C62       -13.8427  -19.5114   -8.0989 C.3       1 UNK         0.0000 
     63 H63       -13.1160  -14.6566   -6.7537 H         1 UNK         0.0000 
     64 H64       -11.3689  -14.8469   -6.7207 H         1 UNK         0.0000 
     65 H65        -8.2390  -19.1975   -1.1866 H         1 UNK         0.0000 
     66 H66        -5.9342  -21.9518   -1.0459 H         1 UNK         0.0000 
     67 H67        -7.4960  -22.4380   -1.6881 H         1 UNK         0.0000 
     68 H68        -5.8328  -19.9665   -4.1098 H         1 UNK         0.0000 
     69 H69        -6.2953  -21.6408   -3.9360 H         1 UNK         0.0000 
     70 H70        -4.9211  -21.0049   -3.0367 H         1 UNK         0.0000 
     71 H71        -8.6588  -21.2337    0.1341 H         1 UNK         0.0000 
     72 H72        -7.2390  -20.2951    0.5468 H         1 UNK         0.0000 
     73 H73        -7.4274  -23.1014    0.8722 H         1 UNK         0.0000 
     74 H74       -10.6547  -12.9683   -6.1287 H         1 UNK         0.0000 
     75 H75        -9.3051  -14.0393   -5.7484 H         1 UNK         0.0000 
     76 H76        -9.5265  -12.4945   -4.8925 H         1 UNK         0.0000 
     77 H77       -13.0356  -13.7981   -4.5788 H         1 UNK         0.0000 
     78 H78       -12.5413  -15.4192   -4.0509 H         1 UNK         0.0000 
     79 H79       -11.1062  -14.6691   -2.1967 H         1 UNK         0.0000 
     80 H80        -9.9205  -12.6257   -0.8916 H         1 UNK         0.0000 
     81 H81        -8.4822  -11.9226   -1.4858 H         1 UNK         0.0000 
     82 H82        -6.1992   -9.0744    2.1736 H         1 UNK         0.0000 
     83 H83        -6.8021  -11.2150    0.0155 H         1 UNK         0.0000 
     84 H84        -8.1827  -10.5511    0.8103 H         1 UNK         0.0000 
     85 H85        -9.0839  -12.8101    1.2772 H         1 UNK         0.0000 
     86 H86        -7.6007  -13.5406    0.7518 H         1 UNK         0.0000 
     87 H87        -4.1636  -13.3837    2.6483 H         1 UNK         0.0000 
     88 H88        -6.2964  -11.5492   -3.6996 H         1 UNK         0.0000 
     89 H89        -2.5379  -12.5672    0.4849 H         1 UNK         0.0000 
     90 H90        -2.7955  -10.9876   -0.1724 H         1 UNK         0.0000 
     91 H91        -4.9131  -11.6580   -1.1711 H         1 UNK         0.0000 
     92 H92        -4.9797  -13.1471   -0.2489 H         1 UNK         0.0000 
     93 H93        -2.9382  -13.9705   -1.4002 H         1 UNK         0.0000 
     94 H94        -2.8358  -12.5609   -2.3621 H         1 UNK         0.0000 
     95 H95        -4.4462  -10.3551   -6.8263 H         1 UNK         0.0000 
     96 H96        -5.4273   -9.4482   -5.6991 H         1 UNK         0.0000 
     97 H97        -2.5656  -12.2263   -4.4178 H         1 UNK         0.0000 
     98 H98        -2.4887  -10.5061   -4.6444 H         1 UNK         0.0000 
     99 H99        -2.6631  -11.5678   -6.0198 H         1 UNK         0.0000 
    100 H100       -7.2434  -11.1614   -5.8339 H         1 UNK         0.0000 
    101 H101       -6.2682  -12.2380   -6.7920 H         1 UNK         0.0000 
    102 H102       -7.3769   -9.7654   -7.5229 H         1 UNK         0.0000 
    103 H103      -14.4891  -19.5469   -7.2186 H         1 UNK         0.0000 
    104 H104      -14.1629  -20.3158   -8.7566 H         1 UNK         0.0000 
    105 H105      -14.0330  -18.5722   -8.6179 H         1 UNK         0.0000 
    106 Fe106      -6.5887  -15.4921   -3.0989 Fe        1 UNK         0.0000 
@<TRIPOS>BOND
     1    1   54 1    
     2    1   55 1    
     3    1    2 1    
     4    1    3 1    
     5    2   10 1    
     6    2   56 1    
     7    2   57 1    
     8    3   58 1    
     9    3   59 1    
    10    3    5 1    
    11    4    6 2    
    12    5    7 1    
    13    5   60 1    
    14    5    6 1    
    15    6    8 1    
    16    7   61 1    
    17    7   62 1    
    18    8    9 1    
    19    9   22 1    
    20    9   63 1    
    21    9   64 1    
    22   10   11 am   BACKBONE|DICT|INTERRES
    23   10   14 1    
    24   11   12 1    
    25   11   13 2    
    26   12   15 2    
    27   12   65 1    
    28   13  106 nc   
    29   14  106 nc   
    30   15   16 1    
    31   15   17 1    
    32   16   18 1    
    33   16   66 1    
    34   16   67 1    
    35   17   68 1    
    36   17   69 1    
    37   17   70 1    
    38   18   19 1    
    39   18   71 1    
    40   18   72 1    
    41   19   73 1    
    42   20   74 1    
    43   20   75 1    
    44   20   76 1    
    45   20   21 1    
    46   21   22 1    
    47   21   23 2    
    48   22   77 1    
    49   22   78 1    
    50   23   79 1    
    51   23   24 1    
    52   24   25 2    
    53   24   26 am   BACKBONE|DICT|INTERRES
    54   25  106 nc   
    55   26   28 1    
    56   26   27 1    
    57   27  106 nc   
    58   28   80 1    
    59   28   81 1    
    60   28   32 1    
    61   29   82 1    
    62   29   30 1    
    63   29   33 am   BACKBONE|DICT|INTERRES
    64   30   51 1    
    65   30   31 1    
    66   30   35 1    
    67   31   83 1    
    68   31   84 1    
    69   31   32 1    
    70   32   85 1    
    71   32   86 1    
    72   33   37 2    
    73   33   34 1    
    74   34   52 1    
    75   34   36 1    
    76   34   44 1    
    77   35   38 2    
    78   35   36 am   BACKBONE|DICT|INTERRES
    79   36   87 1    
    80   39   88 1    
    81   39   40 1    
    82   39   47 2    
    83   40   41 2    
    84   40   42 am   BACKBONE|DICT|INTERRES
    85   41  106 nc   
    86   42   43 1    
    87   42   46 1    
    88   43  106 nc   
    89   44   45 1    
    90   44   89 1    
    91   44   90 1    
    92   45   46 1    
    93   45   91 1    
    94   45   92 1    
    95   46   93 1    
    96   46   94 1    
    97   47   49 1    
    98   47   48 1    
    99   48   50 1    
   100   48   95 1    
   101   48   96 1    
   102   49   97 1    
   103   49   98 1    
   104   49   99 1    
   105   50   53 1    
   106   50  100 1    
   107   50  101 1    
   108   53  102 1    
   109   62  103 1    
   110   62  104 1    
   111   62  105 1    
@<TRIPOS>SUBSTRUCTURE
     1 UNK         1 GROUP             0       ****    0 ROOT    
@<TRIPOS>MOLECULE
010_c1
65   71    1
SMALL
USER_CHARGES


@<TRIPOS>ATOM
      1 O1          2.3850   -3.2245    0.0817 O.co2     1 UNK         0.0000 
      2 O2          5.8481   -4.8438    1.5208 O.co2     1 UNK         0.0000 
      3 O3         -1.2851   -1.4561   -0.4355 O.2       1 UNK         0.0000 
      4 O4          3.4655   -3.2768    2.6028 O.co2     1 UNK         0.0000 
      5 O5          1.5768   -2.5303    3.5735 O.co2     1 UNK         0.0000 
      6 O6         -2.4508   -4.3185   -0.2295 O.3       1 UNK         0.0000 
      7 O7          7.2028   -7.4508    2.4027 O.3       1 UNK         0.0000 
      8 O8         10.3992   -4.8520    1.4647 O.2       1 UNK         0.0000 
      9 O9         -2.6692   -3.5187    1.9005 O.2       1 UNK         0.0000 
     10 O10         5.2801   -2.5500    0.3527 O.co2     1 UNK         0.0000 
     11 O11         7.3126   -1.6912    0.8216 O.co2     1 UNK         0.0000 
     12 O12         3.1787   -5.9014    1.5457 O.co2     1 UNK         0.0000 
     13 O13         1.1161   -7.7295   -1.4225 O.2       1 UNK         0.0000 
     14 O14         6.6105   -8.5984    0.5403 O.2       1 UNK         0.0000 
     15 O15         4.3045   -5.3645   -0.8256 O.co2     1 UNK         0.0000 
     16 O16         4.4264   -7.5155   -1.4486 O.co2     1 UNK         0.0000 
     17 N17         0.2903   -2.5915    0.9052 N.am      1 UNK         0.0000 
     18 N18         8.1063   -4.4952    1.7922 N.am      1 UNK         0.0000 
     19 N19        -0.0025   -6.8893    0.2479 N.am      1 UNK         0.0000 
     20 C20         1.7703   -2.4553    1.1056 C.3       1 UNK         0.0000 
     21 C21         2.0546   -0.9882    0.7698 C.3       1 UNK         0.0000 
     22 C22        -0.4335   -3.9322    0.9593 C.3       1 UNK         0.0000 
     23 C23         0.9532   -0.5785   -0.1652 C.3       1 UNK         0.0000 
     24 C24        -0.1796   -1.5630    0.1162 C.2       1 UNK         0.0000 
     25 C25        -0.0104   -5.0356    1.9857 C.3       1 UNK         0.0000 
     26 C26         6.9243   -4.1460    0.9671 C.3       1 UNK         0.0000 
     27 C27         7.3390   -4.8114   -0.3457 C.3       1 UNK         0.0000 
     28 C28         8.8379   -4.5629   -0.4005 C.3       1 UNK         0.0000 
     29 C29         2.2855   -2.7878    2.5724 C.2       1 UNK         0.0000 
     30 C30        -0.3894   -6.4922    1.6073 C.3       1 UNK         0.0000 
     31 C31         9.2525   -4.6045    1.0674 C.2       1 UNK         0.0000 
     32 C32         8.0274   -5.1297    3.1480 C.3       1 UNK         0.0000 
     33 C33        -1.9823   -3.8565    0.9594 C.2       1 UNK         0.0000 
     34 C34         6.4974   -2.6419    0.7467 C.2       1 UNK         0.0000 
     35 C35         7.0853   -6.3918    3.3750 C.3       1 UNK         0.0000 
     36 C36         3.5997   -7.0479    0.8367 C.3       1 UNK         0.0000 
     37 C37         2.3093   -7.9447    0.6704 C.3       1 UNK         0.0000 
     38 C38         1.1259   -7.4654   -0.2238 C.2       1 UNK         0.0000 
     39 C39         4.6920   -7.7826    1.7735 C.3       1 UNK         0.0000 
     40 C40         6.2347   -7.8963    1.4837 C.2       1 UNK         0.0000 
     41 C41         4.1745   -6.6287   -0.6053 C.2       1 UNK         0.0000 
     42 H42         1.9598   -0.3841    1.6796 H         1 UNK         0.0000 
     43 H43         3.0570   -0.7823    0.3731 H         1 UNK         0.0000 
     44 H44        -0.1354   -4.3463   -0.0064 H         1 UNK         0.0000 
     45 H45         0.6444    0.4617   -0.0456 H         1 UNK         0.0000 
     46 H46         1.2676   -0.7231   -1.2026 H         1 UNK         0.0000 
     47 H47         1.0570   -5.0469    2.1002 H         1 UNK         0.0000 
     48 H48        -0.3915   -4.7980    2.9827 H         1 UNK         0.0000 
     49 H49         7.1633   -5.8899   -0.3266 H         1 UNK         0.0000 
     50 H50         6.8172   -4.4229   -1.2198 H         1 UNK         0.0000 
     51 H51         9.3490   -5.3215   -0.9933 H         1 UNK         0.0000 
     52 H52         9.0986   -3.5778   -0.8055 H         1 UNK         0.0000 
     53 H53        -0.0097   -7.2026    2.3471 H         1 UNK         0.0000 
     54 H54        -1.4806   -6.5910    1.6286 H         1 UNK         0.0000 
     55 H55         7.6725   -4.3451    3.8143 H         1 UNK         0.0000 
     56 H56         9.0336   -5.3771    3.4893 H         1 UNK         0.0000 
     57 H57         6.0468   -6.0743    3.4670 H         1 UNK         0.0000 
     58 H58         7.3080   -6.7851    4.3691 H         1 UNK         0.0000 
     59 H59        -0.6714   -6.7314   -0.4919 H         1 UNK         0.0000 
     60 H60         1.9083   -8.1694    1.6573 H         1 UNK         0.0000 
     61 H61         2.6096   -8.9064    0.2579 H         1 UNK         0.0000 
     62 H62         4.5678   -7.4455    2.8044 H         1 UNK         0.0000 
     63 H63         4.3960   -8.8314    1.8200 H         1 UNK         0.0000 
     64 H64        -1.6759   -4.3720   -0.7952 H         1 UNK         0.0000 
     65 Fe65        4.0719   -4.1881    0.8594 Fe        1 UNK         0.0000 
@<TRIPOS>BOND
     1    1   20 1    
     2    1   65 nc   
     3    2   26 1    
     4    2   65 nc   
     5    3   24 2    
     6    4   29 1    
     7    4   65 nc   
     8    5   29 2    
     9    6   33 1    
    10    6   64 1    
    11    7   35 1    
    12    7   40 1    
    13    8   31 2    
    14    9   33 2    
    15   10   34 1    
    16   10   65 nc   
    17   11   34 2    
    18   12   36 1    
    19   12   65 nc   
    20   13   38 2    
    21   14   40 2    
    22   15   41 1    
    23   15   65 nc   
    24   16   41 2    
    25   17   20 1    
    26   17   22 1    
    27   17   24 am   BACKBONE|DICT|INTERRES
    28   18   26 1    
    29   18   31 am   BACKBONE|DICT|INTERRES
    30   18   32 1    
    31   19   30 1    
    32   19   38 am   BACKBONE|DICT|INTERRES
    33   19   59 1    
    34   20   21 1    
    35   20   29 1    
    36   21   23 1    
    37   21   42 1    
    38   21   43 1    
    39   22   25 1    
    40   22   33 1    
    41   22   44 1    
    42   23   24 1    
    43   23   45 1    
    44   23   46 1    
    45   25   30 1    
    46   25   47 1    
    47   25   48 1    
    48   26   27 1    
    49   26   34 1    
    50   27   28 1    
    51   27   49 1    
    52   27   50 1    
    53   28   31 1    
    54   28   51 1    
    55   28   52 1    
    56   30   53 1    
    57   30   54 1    
    58   32   35 1    
    59   32   55 1    
    60   32   56 1    
    61   35   57 1    
    62   35   58 1    
    63   36   37 1    
    64   36   39 1    
    65   36   41 1    
    66   37   38 1    
    67   37   60 1    
    68   37   61 1    
    69   39   40 1    
    70   39   62 1    
    71   39   63 1    
@<TRIPOS>SUBSTRUCTURE
     1 UNK         1 GROUP             0       ****    0 ROOT    
@<TRIPOS>MOLECULE
017_c1
111   115    1
SMALL
USER_CHARGES


@<TRIPOS>ATOM
      1 O1         10.7078   -0.6878   -0.4143 O.co2     1 UNK         0.0000 
      2 O2         11.4689    3.2567    4.4325 O.2       1 UNK         0.0000 
      3 O3         11.6380    1.8346    0.2139 O.co2     1 UNK         0.0000 
      4 O4         16.4672    1.1442   -4.2597 O.2       1 UNK         0.0000 
      5 O5         13.1063    0.1428   -1.4002 O.co2     1 UNK         0.0000 
      6 N6         20.1020   -5.5021   -0.2118 N.am      1 UNK         0.0000 
      7 C7         18.6985   -5.6246   -0.5853 C.3       1 UNK         0.0000 
      8 C8         17.9776   -4.2828   -0.4268 C.3       1 UNK         0.0000 
      9 C9         16.4984   -4.3940   -0.7969 C.3       1 UNK         0.0000 
     10 C10        15.7917   -3.0587   -0.6296 C.3       1 UNK         0.0000 
     11 C11        14.3166   -3.1911   -1.0363 C.3       1 UNK         0.0000 
     12 O12        13.1460   -1.8331    0.4245 O.co2     1 UNK         0.0000 
     13 N13        13.6248   -1.9307   -0.8129 N.am      1 UNK         0.0000 
     14 C14        13.6407   -0.9179   -1.7359 C.2       1 UNK         0.0000 
     15 C15        14.3010   -1.1062   -3.1280 C.3       1 UNK         0.0000 
     16 C16        14.3046    0.1018   -4.1153 C.3       1 UNK         0.0000 
     17 C17        15.3419    1.1795   -3.7832 C.2       1 UNK         0.0000 
     18 N18        14.9597    2.0890   -2.8961 N.am      1 UNK         0.0000 
     19 C19        15.8510    2.9667   -2.1308 C.3       1 UNK         0.0000 
     20 C20        15.1056    3.3681   -0.8585 C.3       1 UNK         0.0000 
     21 C21        15.9177    3.9553    0.3184 C.3       1 UNK         0.0000 
     22 C22        15.0495    4.2507    1.5742 C.3       1 UNK         0.0000 
     23 C23        14.3724    3.0348    2.2740 C.3       1 UNK         0.0000 
     24 O24        13.8846    0.9484    1.3228 O.co2     1 UNK         0.0000 
     25 N25        13.4446    2.2062    1.4599 N.am      1 UNK         0.0000 
     26 C26        12.3023    2.6662    0.8644 C.2       1 UNK         0.0000 
     27 C27        11.7530    4.1006    1.0020 C.3       1 UNK         0.0000 
     28 C28        11.4474    4.5989    2.4481 C.3       1 UNK         0.0000 
     29 C29        10.8662    3.5525    3.4114 C.2       1 UNK         0.0000 
     30 N30         9.7383    2.9492    3.0235 N.am      1 UNK         0.0000 
     31 C31         9.1826    1.7868    3.7145 C.3       1 UNK         0.0000 
     32 C32         7.9098    1.2279    3.0503 C.3       1 UNK         0.0000 
     33 C33         7.4820   -0.1218    3.6861 C.3       1 UNK         0.0000 
     34 C34         7.9339   -1.4240    2.9757 C.3       1 UNK         0.0000 
     35 C35         9.4536   -1.7185    2.7976 C.3       1 UNK         0.0000 
     36 O36        11.2131   -0.2823    2.1454 O.co2     1 UNK         0.0000 
     37 N37        10.1621   -0.9969    1.7138 N.am      1 UNK         0.0000 
     38 C38         9.9159   -1.2087    0.3890 C.2       1 UNK         0.0000 
     39 C39         8.7613   -2.0504   -0.1755 C.3       1 UNK         0.0000 
     40 C40         7.6626   -1.1837   -0.8624 C.3       1 UNK         0.0000 
     41 C41        21.1725   -5.6936   -0.9782 C.2       1 UNK         0.0000 
     42 H42        20.3457   -5.2541    0.7329 H         1 UNK         0.0000 
     43 H43        18.2181   -6.3842    0.0346 H         1 UNK         0.0000 
     44 H44        18.5307   -5.9956   -1.6032 H         1 UNK         0.0000 
     45 H45        18.4554   -3.5215   -1.0498 H         1 UNK         0.0000 
     46 H46        18.0690   -3.9262    0.6032 H         1 UNK         0.0000 
     47 H47        16.0038   -5.1449   -0.1750 H         1 UNK         0.0000 
     48 H48        16.3898   -4.7333   -1.8299 H         1 UNK         0.0000 
     49 H49        16.2914   -2.2999   -1.2340 H         1 UNK         0.0000 
     50 H50        15.8743   -2.7105    0.4018 H         1 UNK         0.0000 
     51 H51        13.8552   -3.9813   -0.4339 H         1 UNK         0.0000 
     52 H52        14.2134   -3.5697   -2.0626 H         1 UNK         0.0000 
     53 H53        13.7257   -1.8978   -3.5988 H         1 UNK         0.0000 
     54 H54        15.3005   -1.5350   -3.0458 H         1 UNK         0.0000 
     55 H55        14.6458   -0.2786   -5.0681 H         1 UNK         0.0000 
     56 H56        13.3110    0.4703   -4.3551 H         1 UNK         0.0000 
     57 H57        14.0297    1.9753   -2.5366 H         1 UNK         0.0000 
     58 H58        16.2094    3.8305   -2.6943 H         1 UNK         0.0000 
     59 H59        16.7413    2.3988   -1.8355 H         1 UNK         0.0000 
     60 H60        14.7077    2.4209   -0.5315 H         1 UNK         0.0000 
     61 H61        14.2563    4.0133   -1.0935 H         1 UNK         0.0000 
     62 H62        16.4041    4.8766   -0.0031 H         1 UNK         0.0000 
     63 H63        16.7316    3.2687    0.5758 H         1 UNK         0.0000 
     64 H64        14.3061    5.0103    1.3476 H         1 UNK         0.0000 
     65 H65        15.6922    4.7099    2.3223 H         1 UNK         0.0000 
     66 H66        15.2151    2.4190    2.6037 H         1 UNK         0.0000 
     67 H67        13.8959    3.2993    3.2227 H         1 UNK         0.0000 
     68 H68        10.8161    4.1592    0.4364 H         1 UNK         0.0000 
     69 H69        12.3613    4.7911    0.4166 H         1 UNK         0.0000 
     70 H70        10.8061    5.4696    2.4285 H         1 UNK         0.0000 
     71 H71        12.3703    4.9933    2.8658 H         1 UNK         0.0000 
     72 H72         9.3065    3.2532    2.1727 H         1 UNK         0.0000 
     73 H73         9.0110    1.9956    4.7738 H         1 UNK         0.0000 
     74 H74         9.9372    1.0020    3.7491 H         1 UNK         0.0000 
     75 H75         8.0182    1.1319    1.9660 H         1 UNK         0.0000 
     76 H76         7.1048    1.9547    3.1968 H         1 UNK         0.0000 
     77 H77         7.7743   -0.1477    4.7398 H         1 UNK         0.0000 
     78 H78         6.3926   -0.1307    3.7034 H         1 UNK         0.0000 
     79 H79         7.5459   -2.2465    3.5722 H         1 UNK         0.0000 
     80 H80         7.4092   -1.4793    2.0297 H         1 UNK         0.0000 
     81 H81         9.9402   -1.5334    3.7609 H         1 UNK         0.0000 
     82 H82         9.6170   -2.7940    2.6590 H         1 UNK         0.0000 
     83 H83         9.2049   -2.7364   -0.9004 H         1 UNK         0.0000 
     84 H84         8.3605   -2.7284    0.5758 H         1 UNK         0.0000 
     85 C85        21.0111   -6.1068   -2.4380 C.3       1 UNK         0.0000 
     86 O86        22.2837   -5.5469   -0.4874 O.2       1 UNK         0.0000 
     87 H87        20.4769   -7.0531   -2.5078 H         1 UNK         0.0000 
     88 H88        21.9869   -6.2257   -2.9118 H         1 UNK         0.0000 
     89 H89        20.4469   -5.3549   -2.9871 H         1 UNK         0.0000 
     90 H90         7.1594   -0.5927   -0.1010 H         1 UNK         0.0000 
     91 C91         8.1357   -0.2259   -1.9907 C.3       1 UNK         0.0000 
     92 H92         6.8975   -1.8431   -1.2622 H         1 UNK         0.0000 
     93 H93         8.7830    0.5543   -1.5821 H         1 UNK         0.0000 
     94 H94         7.2790    0.3256   -2.3803 H         1 UNK         0.0000 
     95 C95         8.8507   -0.9484   -3.1590 C.3       1 UNK         0.0000 
     96 H96         9.7391   -1.4734   -2.7957 H         1 UNK         0.0000 
     97 C97         9.2730   -0.0374   -4.3378 C.3       1 UNK         0.0000 
     98 H98         8.1888   -1.7343   -3.5319 H         1 UNK         0.0000 
     99 C99        10.2716    1.0628   -3.8978 C.3       1 UNK         0.0000 
    100 H100        8.3708    0.4632   -4.7024 H         1 UNK         0.0000 
    101 C101        9.8293   -0.9058   -5.4937 C.3       1 UNK         0.0000 
    102 H102       10.7321   -1.4229   -5.1578 H         1 UNK         0.0000 
    103 C103       10.1258   -0.1359   -6.7935 C.3       1 UNK         0.0000 
    104 H104        9.1150   -1.7013   -5.7164 H         1 UNK         0.0000 
    105 H105       10.9152    0.6038   -6.6594 H         1 UNK         0.0000 
    106 H106        9.2421    0.3855   -7.1644 H         1 UNK         0.0000 
    107 H107       10.4567   -0.8151   -7.5782 H         1 UNK         0.0000 
    108 H108        9.8493    1.7187   -3.1362 H         1 UNK         0.0000 
    109 H109       10.5528    1.7095   -4.7289 H         1 UNK         0.0000 
    110 H110       11.1853    0.6300   -3.4894 H         1 UNK         0.0000 
    111 Fe111      12.3195    0.0027    0.4554 Fe        1 UNK         0.0000 
@<TRIPOS>BOND
     1    1   38 2    
     2    1  111 nc   
     3    2   29 2    
     4    3   26 2    
     5    3  111 nc   
     6    4   17 2    
     7    5   14 2    
     8    5  111 nc   
     9    6   41 am   BACKBONE|DICT|INTERRES
    10    6   42 1    
    11    6    7 1    
    12    7   43 1    
    13    7   44 1    
    14    7    8 1    
    15    8   45 1    
    16    8   46 1    
    17    8    9 1    
    18    9   47 1    
    19    9   48 1    
    20    9   10 1    
    21   10   49 1    
    22   10   50 1    
    23   10   11 1    
    24   11   51 1    
    25   11   52 1    
    26   11   13 1    
    27   12   13 1    
    28   12  111 nc   
    29   13   14 am   BACKBONE|DICT|INTERRES
    30   14   15 1    
    31   15   53 1    
    32   15   54 1    
    33   15   16 1    
    34   16   55 1    
    35   16   56 1    
    36   16   17 1    
    37   17   18 am   BACKBONE|DICT|INTERRES
    38   18   57 1    
    39   18   19 1    
    40   19   58 1    
    41   19   59 1    
    42   19   20 1    
    43   20   60 1    
    44   20   61 1    
    45   20   21 1    
    46   21   62 1    
    47   21   63 1    
    48   21   22 1    
    49   22   64 1    
    50   22   65 1    
    51   22   23 1    
    52   23   66 1    
    53   23   67 1    
    54   23   25 1    
    55   24   25 1    
    56   24  111 nc   
    57   25   26 am   BACKBONE|DICT|INTERRES
    58   26   27 1    
    59   27   68 1    
    60   27   69 1    
    61   27   28 1    
    62   28   70 1    
    63   28   71 1    
    64   28   29 1    
    65   29   30 am   BACKBONE|DICT|INTERRES
    66   30   72 1    
    67   30   31 1    
    68   31   73 1    
    69   31   74 1    
    70   31   32 1    
    71   32   75 1    
    72   32   76 1    
    73   32   33 1    
    74   33   77 1    
    75   33   78 1    
    76   33   34 1    
    77   34   79 1    
    78   34   80 1    
    79   34   35 1    
    80   35   81 1    
    81   35   82 1    
    82   35   37 1    
    83   36   37 1    
    84   36  111 nc   
    85   37   38 am   BACKBONE|DICT|INTERRES
    86   38   39 1    
    87   39   40 1    
    88   39   83 1    
    89   39   84 1    
    90   40   90 1    
    91   40   91 1    
    92   40   92 1    
    93   41   85 1    
    94   41   86 2    
    95   85   87 1    
    96   85   88 1    
    97   85   89 1    
    98   91   93 1    
    99   91   94 1    
   100   91   95 1    
   101   95   96 1    
   102   95   97 1    
   103   95   98 1    
   104   97   99 1    
   105   97  100 1    
   106   97  101 1    
   107   99  108 1    
   108   99  109 1    
   109   99  110 1    
   110  101  102 1    
   111  101  103 1    
   112  101  104 1    
   113  103  105 1    
   114  103  106 1    
   115  103  107 1    
@<TRIPOS>SUBSTRUCTURE
     1 UNK         1 GROUP             0       ****    0 ROOT    
@<TRIPOS>MOLECULE
040_c1
125   129    1
SMALL
USER_CHARGES


@<TRIPOS>ATOM
      1 O1         13.0158    5.0510   -2.6982 O.co2     1 UNK         0.0000 
      2 C2         12.3475    5.9101   -3.2938 C.2       1 UNK         0.0000 
      3 C3         11.3563    5.4781   -4.3742 C.3       1 UNK         0.0000 
      4 N4         12.5068    7.2124   -2.9336 N.am      1 UNK         0.0000 
      5 O5         13.3821    7.5946   -1.9926 O.co2     1 UNK         0.0000 
      6 C6         11.7059    8.3271   -3.4942 C.3       1 UNK         0.0000 
      7 C7         10.6871    8.9468   -2.5030 C.3       1 UNK         0.0000 
      8 C8         11.2601    9.8294   -1.3569 C.3       1 UNK         0.0000 
      9 C9         11.7048   11.2635   -1.7741 C.3       1 UNK         0.0000 
     10 H10        12.2939   11.1972   -2.6905 H         1 UNK         0.0000 
     11 C11        10.4404   12.1454   -2.0977 C.2       1 UNK         0.0000 
     12 O12         9.6822   12.3652   -1.1240 O.co2     1 UNK         0.0000 
     13 O13        10.2266   12.3502   -3.3127 O.co2     1 UNK         0.0000 
     14 N14        12.5614   11.8578   -0.7250 N.am      1 UNK         0.0000 
     15 C15        13.2216   13.0291   -0.7941 C.2       1 UNK         0.0000 
     16 O16        13.2324   13.7745   -1.7673 O.2       1 UNK         0.0000 
     17 C17        14.1279   13.3574    0.4176 C.3       1 UNK         0.0000 
     18 H18        13.5075   13.3064    1.3113 H         1 UNK         0.0000 
     19 C19        14.8144   14.7587    0.3953 C.3       1 UNK         0.0000 
     20 O20        14.0047   15.8577    0.7991 O.3       1 UNK         0.0000 
     21 N21        15.1545   12.3197    0.5909 N.am      1 UNK         0.0000 
     22 C22        16.0355   11.9019   -0.3280 C.2       1 UNK         0.0000 
     23 O23        16.1825   12.4328   -1.4274 O.2       1 UNK         0.0000 
     24 C24        16.9433   10.7183    0.0563 C.3       1 UNK         0.0000 
     25 H25        17.5321   11.0250    0.9242 H         1 UNK         0.0000 
     26 C26        16.1800    9.4098    0.3880 C.3       1 UNK         0.0000 
     27 C27        15.1882    9.3562    1.5742 C.3       1 UNK         0.0000 
     28 C28        14.8335    7.9246    2.0656 C.3       1 UNK         0.0000 
     29 N29        14.3647    6.9587    1.0398 N.am      1 UNK         0.0000 
     30 O30        15.2902    6.7098    0.1038 O.co2     1 UNK         0.0000 
     31 C31        13.1429    6.3523    1.0090 C.2       1 UNK         0.0000 
     32 O32        12.8766    5.6335    0.0291 O.co2     1 UNK         0.0000 
     33 C33        12.0948    6.5036    2.1129 C.3       1 UNK         0.0000 
     34 N34        17.8524   10.4619   -1.0604 N.am      1 UNK         0.0000 
     35 C35        19.0001    9.7895   -0.9506 C.2       1 UNK         0.0000 
     36 O36        19.4876    9.4883    0.1380 O.2       1 UNK         0.0000 
     37 C37        19.7197    9.3358   -2.2319 C.3       1 UNK         0.0000 
     38 H38        19.2657    9.8203   -3.1038 H         1 UNK         0.0000 
     39 C39        19.6197    7.7755   -2.3638 C.3       1 UNK         0.0000 
     40 C40        18.1874    7.1771   -2.4740 C.3       1 UNK         0.0000 
     41 C41        18.0461    5.6374   -2.2222 C.3       1 UNK         0.0000 
     42 N42        16.6472    5.1439   -2.0990 N.am      1 UNK         0.0000 
     43 O43        15.7464    5.9204   -2.7220 O.co2     1 UNK         0.0000 
     44 C44        16.2498    4.1373   -1.2738 C.2       1 UNK         0.0000 
     45 O45        15.0433    4.0989   -0.9649 O.co2     1 UNK         0.0000 
     46 C46        17.2175    3.1069   -0.6847 C.3       1 UNK         0.0000 
     47 N47        21.1026    9.7700   -2.0373 N.am      1 UNK         0.0000 
     48 C48        21.9203   10.5672   -2.7579 C.2       1 UNK         0.0000 
     49 O49        22.9861   10.9013   -2.2655 O.2       1 UNK         0.0000 
     50 C50        21.6010   11.0367   -4.1853 C.3       1 UNK         0.0000 
     51 C51        21.1026   12.5030   -4.3221 C.3       1 UNK         0.0000 
     52 H52        20.0443   12.4858   -4.0457 H         1 UNK         0.0000 
     53 O53        21.1407   12.8660   -5.6872 O.3       1 UNK         0.0000 
     54 C54        21.7364   13.6277   -3.4517 C.3       1 UNK         0.0000 
     55 C55        23.1991   14.1119   -3.6986 C.3       1 UNK         0.0000 
     56 C56        23.3712   15.1437   -4.8537 C.3       1 UNK         0.0000 
     57 C57        24.2301   16.4000   -4.5274 C.3       1 UNK         0.0000 
     58 C58        25.7676   16.1962   -4.4173 C.3       1 UNK         0.0000 
     59 C59        26.5844   17.0236   -5.4496 C.3       1 UNK         0.0000 
     60 C60        28.0961   17.1211   -5.1361 C.3       1 UNK         0.0000 
     61 C61        28.8638   18.0773   -6.0786 C.3       1 UNK         0.0000 
     62 C62        30.3594   18.2088   -5.7173 C.3       1 UNK         0.0000 
     63 C63        31.1711   19.1418   -6.6408 C.3       1 UNK         0.0000 
     64 C64        30.8031   20.6276   -6.5204 C.3       1 UNK         0.0000 
     65 H65        11.3767    4.4000   -4.5011 H         1 UNK         0.0000 
     66 H66        10.3438    5.7649   -4.1001 H         1 UNK         0.0000 
     67 H67        11.5970    5.9309   -5.3332 H         1 UNK         0.0000 
     68 H68        12.3937    9.1039   -3.8450 H         1 UNK         0.0000 
     69 H69        11.1513    8.0334   -4.3892 H         1 UNK         0.0000 
     70 H70        10.1110    8.1241   -2.0845 H         1 UNK         0.0000 
     71 H71         9.9796    9.5543   -3.0763 H         1 UNK         0.0000 
     72 H72        12.0840    9.3105   -0.8681 H         1 UNK         0.0000 
     73 H73        10.4940    9.9013   -0.5782 H         1 UNK         0.0000 
     74 H74        12.5848   11.3363    0.1341 H         1 UNK         0.0000 
     75 H75        15.2556   14.9752   -0.5852 H         1 UNK         0.0000 
     76 H76        15.6371   14.7452    1.1164 H         1 UNK         0.0000 
     77 H77        14.3528   16.6306    0.3395 H         1 UNK         0.0000 
     78 H78        15.1343   11.8405    1.4761 H         1 UNK         0.0000 
     79 H79        16.9341    8.6339    0.5672 H         1 UNK         0.0000 
     80 H80        15.6258    9.1296   -0.5154 H         1 UNK         0.0000 
     81 H81        14.2594    9.8477    1.2944 H         1 UNK         0.0000 
     82 H82        15.5961    9.9083    2.4246 H         1 UNK         0.0000 
     83 H83        15.7347    7.4754    2.4936 H         1 UNK         0.0000 
     84 H84        14.1494    8.0501    2.8957 H         1 UNK         0.0000 
     85 H85        12.3934    7.0740    2.9864 H         1 UNK         0.0000 
     86 H86        11.8442    5.5093    2.4738 H         1 UNK         0.0000 
     87 H87        11.1886    6.9615    1.7178 H         1 UNK         0.0000 
     88 H88        17.5050   10.7877   -1.9554 H         1 UNK         0.0000 
     89 H89        20.2085    7.4543   -3.2274 H         1 UNK         0.0000 
     90 H90        20.1081    7.3398   -1.4877 H         1 UNK         0.0000 
     91 H91        17.7960    7.3997   -3.4715 H         1 UNK         0.0000 
     92 H92        17.5247    7.6752   -1.7625 H         1 UNK         0.0000 
     93 H93        18.5520    5.0801   -3.0131 H         1 UNK         0.0000 
     94 H94        18.6047    5.4089   -1.3099 H         1 UNK         0.0000 
     95 H95        16.8655    2.1001   -0.9075 H         1 UNK         0.0000 
     96 H96        17.2435    3.2141    0.3986 H         1 UNK         0.0000 
     97 H97        18.2311    3.1940   -1.0798 H         1 UNK         0.0000 
     98 H98        21.4169    9.5766   -1.0919 H         1 UNK         0.0000 
     99 H99        20.8950   10.3537   -4.6572 H         1 UNK         0.0000 
    100 H100       22.5339   10.9134   -4.7414 H         1 UNK         0.0000 
    101 H101       20.5634   12.2697   -6.1752 H         1 UNK         0.0000 
    102 H102       21.6506   13.3072   -2.4109 H         1 UNK         0.0000 
    103 H103       21.0801   14.4997   -3.5124 H         1 UNK         0.0000 
    104 H104       23.8638   13.2542   -3.8447 H         1 UNK         0.0000 
    105 H105       23.5258   14.5820   -2.7653 H         1 UNK         0.0000 
    106 H106       22.3839   15.5109   -5.1525 H         1 UNK         0.0000 
    107 H107       23.7696   14.6406   -5.7393 H         1 UNK         0.0000 
    108 H108       23.8614   16.8510   -3.5997 H         1 UNK         0.0000 
    109 H109       24.0239   17.1578   -5.2897 H         1 UNK         0.0000 
    110 H110       26.0189   15.1366   -4.4994 H         1 UNK         0.0000 
    111 H111       26.0790   16.4961   -3.4119 H         1 UNK         0.0000 
    112 H112       26.1823   18.0382   -5.4947 H         1 UNK         0.0000 
    113 H113       26.4429   16.5947   -6.4454 H         1 UNK         0.0000 
    114 H114       28.5399   16.1241   -5.1809 H         1 UNK         0.0000 
    115 H115       28.2247   17.4708   -4.1092 H         1 UNK         0.0000 
    116 H116       28.3970   19.0641   -6.0447 H         1 UNK         0.0000 
    117 H117       28.7718   17.7274   -7.1085 H         1 UNK         0.0000 
    118 H118       30.4655   18.5510   -4.6851 H         1 UNK         0.0000 
    119 H119       30.8165   17.2172   -5.7548 H         1 UNK         0.0000 
    120 H120       32.2327   19.0401   -6.3973 H         1 UNK         0.0000 
    121 H121       31.0700   18.8236   -7.6819 H         1 UNK         0.0000 
    122 H122       30.9152   20.9806   -5.4924 H         1 UNK         0.0000 
    123 H123       29.7749   20.8152   -6.8364 H         1 UNK         0.0000 
    124 H124       31.4570   21.2377   -7.1505 H         1 UNK         0.0000 
    125 Fe125      14.2463    5.8810   -1.3900 Fe        1 UNK         0.0000 
@<TRIPOS>BOND
     1    1    2 2    
     2    1  125 nc   
     3    2    3 1    
     4    2    4 am   BACKBONE|DICT|INTERRES
     5    3   65 1    
     6    3   66 1    
     7    3   67 1    
     8    4    5 1    
     9    4    6 1    
    10    5  125 nc   
    11    6    7 1    
    12    6   68 1    
    13    6   69 1    
    14    7    8 1    
    15    7   70 1    
    16    7   71 1    
    17    8    9 1    
    18    8   72 1    
    19    8   73 1    
    20    9   10 1    
    21    9   11 1    
    22    9   14 1    
    23   11   12 1    
    24   11   13 2    
    25   14   15 am   BACKBONE|DICT|INTERRES
    26   14   74 1    
    27   15   16 2    
    28   15   17 1    
    29   17   19 1    
    30   17   21 1    
    31   17   18 1    
    32   19   20 1    
    33   19   75 1    
    34   19   76 1    
    35   20   77 1    
    36   21   22 am   BACKBONE|DICT|INTERRES
    37   21   78 1    
    38   22   23 2    
    39   22   24 1    
    40   24   25 1    
    41   24   26 1    
    42   24   34 1    
    43   26   27 1    
    44   26   79 1    
    45   26   80 1    
    46   27   28 1    
    47   27   81 1    
    48   27   82 1    
    49   28   29 1    
    50   28   83 1    
    51   28   84 1    
    52   29   30 1    
    53   29   31 am   BACKBONE|DICT|INTERRES
    54   30  125 nc   
    55   31   32 2    
    56   31   33 1    
    57   32  125 nc   
    58   33   85 1    
    59   33   86 1    
    60   33   87 1    
    61   34   35 am   BACKBONE|DICT|INTERRES
    62   34   88 1    
    63   35   36 2    
    64   35   37 1    
    65   37   39 1    
    66   37   47 1    
    67   37   38 1    
    68   39   40 1    
    69   39   89 1    
    70   39   90 1    
    71   40   41 1    
    72   40   91 1    
    73   40   92 1    
    74   41   42 1    
    75   41   93 1    
    76   41   94 1    
    77   42   43 1    
    78   42   44 am   BACKBONE|DICT|INTERRES
    79   43  125 nc   
    80   44   45 2    
    81   44   46 1    
    82   45  125 nc   
    83   46   95 1    
    84   46   96 1    
    85   46   97 1    
    86   47   48 am   BACKBONE|DICT|INTERRES
    87   47   98 1    
    88   48   49 2    
    89   48   50 1    
    90   50   99 1    
    91   50  100 1    
    92   50   51 1    
    93   51   53 1    
    94   51   54 1    
    95   51   52 1    
    96   53  101 1    
    97   54   55 1    
    98   54  102 1    
    99   54  103 1    
   100   55   56 1    
   101   55  104 1    
   102   55  105 1    
   103   56   57 1    
   104   56  106 1    
   105   56  107 1    
   106   57   58 1    
   107   57  108 1    
   108   57  109 1    
   109   58   59 1    
   110   58  110 1    
   111   58  111 1    
   112   59   60 1    
   113   59  112 1    
   114   59  113 1    
   115   60   61 1    
   116   60  114 1    
   117   60  115 1    
   118   61   62 1    
   119   61  116 1    
   120   61  117 1    
   121   62   63 1    
   122   62  118 1    
   123   62  119 1    
   124   63   64 1    
   125   63  120 1    
   126   63  121 1    
   127   64  122 1    
   128   64  123 1    
   129   64  124 1    
@<TRIPOS>SUBSTRUCTURE
     1 UNK         1 GROUP             0       ****    0 ROOT    
@<TRIPOS>MOLECULE
041_c1
129   133    1
SMALL
USER_CHARGES


@<TRIPOS>ATOM
      1 O1         14.0837    5.1505   -3.1640 O.co2     1 UNK         0.0000 
      2 C2         13.2682    5.8731   -3.7563 C.2       1 UNK         0.0000 
      3 C3         12.3930    5.2828   -4.8606 C.3       1 UNK         0.0000 
      4 N4         13.1713    7.1718   -3.3653 N.am      1 UNK         0.0000 
      5 O5         13.9692    7.7221   -2.4412 O.co2     1 UNK         0.0000 
      6 C6         12.1369    8.0954   -3.8789 C.3       1 UNK         0.0000 
      7 C7         11.0958    8.5409   -2.8192 C.3       1 UNK         0.0000 
      8 C8         11.5735    9.5587   -1.7452 C.3       1 UNK         0.0000 
      9 C9         12.0117   10.9559   -2.2762 C.3       1 UNK         0.0000 
     10 H10        12.7281   10.8118   -3.0866 H         1 UNK         0.0000 
     11 C11        10.7780   11.7205   -2.8881 C.2       1 UNK         0.0000 
     12 O12        10.0059   12.2367   -2.0435 O.co2     1 UNK         0.0000 
     13 O13        10.6070   11.5389   -4.1152 O.co2     1 UNK         0.0000 
     14 N14        12.7079   11.7172   -1.2128 N.am      1 UNK         0.0000 
     15 C15        13.3862   12.8651   -1.3820 C.2       1 UNK         0.0000 
     16 O16        13.5527   13.4325   -2.4572 O.2       1 UNK         0.0000 
     17 C17        14.0732   13.4320   -0.1183 C.3       1 UNK         0.0000 
     18 H18        13.3319   13.4430    0.6787 H         1 UNK         0.0000 
     19 C19        14.6177   14.8766   -0.2674 C.3       1 UNK         0.0000 
     20 O20        13.5845   15.8440   -0.2855 O.3       1 UNK         0.0000 
     21 N21        15.1450   12.5402    0.3336 N.am      1 UNK         0.0000 
     22 C22        16.2519   12.2456   -0.3604 C.2       1 UNK         0.0000 
     23 O23        16.5649   12.7927   -1.4169 O.2       1 UNK         0.0000 
     24 C24        17.1988   11.1885    0.2362 C.3       1 UNK         0.0000 
     25 H25        17.5789   11.5627    1.1886 H         1 UNK         0.0000 
     26 C26        16.5287    9.8081    0.4272 C.3       1 UNK         0.0000 
     27 C27        15.3240    9.6335    1.3805 C.3       1 UNK         0.0000 
     28 C28        15.0506    8.1617    1.7982 C.3       1 UNK         0.0000 
     29 N29        14.7889    7.1978    0.7009 N.am      1 UNK         0.0000 
     30 O30        15.8195    7.0832   -0.1415 O.co2     1 UNK         0.0000 
     31 C31        13.6488    6.4676    0.5322 C.2       1 UNK         0.0000 
     32 O32        13.5865    5.7267   -0.4665 O.co2     1 UNK         0.0000 
     33 C33        12.4581    6.5064    1.4923 C.3       1 UNK         0.0000 
     34 N34        18.3113   11.0400   -0.6998 N.am      1 UNK         0.0000 
     35 C35        19.4592   10.4101   -0.4468 C.2       1 UNK         0.0000 
     36 O36        19.8282   10.0985    0.6832 O.2       1 UNK         0.0000 
     37 C37        20.3144   10.0067   -1.6578 C.3       1 UNK         0.0000 
     38 H38        19.8757   10.4495   -2.5525 H         1 UNK         0.0000 
     39 C39        20.3069    8.4720   -1.8810 C.3       1 UNK         0.0000 
     40 C40        18.9067    7.8367   -2.0068 C.3       1 UNK         0.0000 
     41 C41        18.9042    6.3310   -2.3728 C.3       1 UNK         0.0000 
     42 N42        17.5611    5.7183   -2.2994 N.am      1 UNK         0.0000 
     43 O43        16.6345    6.4277   -2.9566 O.co2     1 UNK         0.0000 
     44 C44        17.2313    4.6766   -1.4875 C.2       1 UNK         0.0000 
     45 O45        16.0212    4.5055   -1.2569 O.co2     1 UNK         0.0000 
     46 C46        18.2634    3.7617   -0.8256 C.3       1 UNK         0.0000 
     47 N47        21.6696   10.4861   -1.4210 N.am      1 UNK         0.0000 
     48 C48        22.3695   11.4092   -2.0998 C.2       1 UNK         0.0000 
     49 O49        23.4980   11.7100   -1.7305 O.2       1 UNK         0.0000 
     50 C50        21.7725   12.1048   -3.3270 C.3       1 UNK         0.0000 
     51 C51        20.6635   13.1281   -2.9931 C.3       1 UNK         0.0000 
     52 H52        19.7942   12.6253   -2.5701 H         1 UNK         0.0000 
     53 O53        20.2191   13.6928   -4.2073 O.3       1 UNK         0.0000 
     54 C54        21.0361   14.2498   -1.9928 C.3       1 UNK         0.0000 
     55 C55        22.3126   15.0743   -2.2756 C.3       1 UNK         0.0000 
     56 C56        22.2536   15.9248   -3.5601 C.3       1 UNK         0.0000 
     57 C57        23.3829   16.9638   -3.6734 C.3       1 UNK         0.0000 
     58 C58        24.7879   16.3466   -3.7635 C.3       1 UNK         0.0000 
     59 C59        25.8910   17.3792   -3.9049 C.2       1 UNK         0.0000 
     60 C60        27.2088   17.1151   -3.9603 C.2       1 UNK         0.0000 
     61 C61        27.8546   15.7402   -3.9006 C.3       1 UNK         0.0000 
     62 H62        12.6477    4.2407   -5.0332 H         1 UNK         0.0000 
     63 H63        11.3398    5.3343   -4.5926 H         1 UNK         0.0000 
     64 H64        12.5399    5.8188   -5.7960 H         1 UNK         0.0000 
     65 H65        12.6376    8.9677   -4.3082 H         1 UNK         0.0000 
     66 H66        11.5750    7.6856   -4.7195 H         1 UNK         0.0000 
     67 H67        10.7063    7.6487   -2.3320 H         1 UNK         0.0000 
     68 H68        10.2457    8.9812   -3.3459 H         1 UNK         0.0000 
     69 H69        12.3761    9.1161   -1.1564 H         1 UNK         0.0000 
     70 H70        10.7588    9.6944   -1.0306 H         1 UNK         0.0000 
     71 H71        12.5599   11.3636   -0.2847 H         1 UNK         0.0000 
     72 H72        15.2260   14.9922   -1.1675 H         1 UNK         0.0000 
     73 H73        15.2721   15.1146    0.5691 H         1 UNK         0.0000 
     74 H74        13.2264   15.8583   -1.1850 H         1 UNK         0.0000 
     75 H75        14.9673   12.0474    1.1937 H         1 UNK         0.0000 
     76 H76        17.3028    9.1093    0.7552 H         1 UNK         0.0000 
     77 H77        16.2088    9.4864   -0.5669 H         1 UNK         0.0000 
     78 H78        14.4187   10.0262    0.9201 H         1 UNK         0.0000 
     79 H79        15.4987   10.2104    2.2901 H         1 UNK         0.0000 
     80 H80        15.9359    7.7827    2.3174 H         1 UNK         0.0000 
     81 H81        14.2791    8.1904    2.5585 H         1 UNK         0.0000 
     82 H82        12.5804    7.1117    2.3847 H         1 UNK         0.0000 
     83 H83        12.2515    5.4916    1.8284 H         1 UNK         0.0000 
     84 H84        11.5759    6.8734    0.9680 H         1 UNK         0.0000 
     85 H85        18.0802   11.3788   -1.6273 H         1 UNK         0.0000 
     86 H86        20.8833    8.2576   -2.7834 H         1 UNK         0.0000 
     87 H87        20.8323    7.9882   -1.0551 H         1 UNK         0.0000 
     88 H88        18.3329    8.3819   -2.7590 H         1 UNK         0.0000 
     89 H89        18.3745    7.9466   -1.0607 H         1 UNK         0.0000 
     90 H90        19.3023    6.1998   -3.3820 H         1 UNK         0.0000 
     91 H91        19.6257    5.8404   -1.7208 H         1 UNK         0.0000 
     92 H92        17.9420    2.7234   -0.9090 H         1 UNK         0.0000 
     93 H93        18.3357    4.0086    0.2327 H         1 UNK         0.0000 
     94 H94        19.2542    3.8184   -1.2745 H         1 UNK         0.0000 
     95 H95        22.0811   10.1365   -0.5674 H         1 UNK         0.0000 
     96 H96        21.4168   11.3485   -4.0266 H         1 UNK         0.0000 
     97 H97        22.5846   12.6185   -3.8462 H         1 UNK         0.0000 
     98 H98        19.7896   13.0174   -4.7372 H         1 UNK         0.0000 
     99 H99        21.1478   13.7957   -1.0054 H         1 UNK         0.0000 
    100 H100       20.1836   14.9255   -1.8928 H         1 UNK         0.0000 
    101 H101       23.1787   14.4092   -2.3083 H         1 UNK         0.0000 
    102 H102       22.4776   15.7343   -1.4207 H         1 UNK         0.0000 
    103 H103       21.2946   16.4459   -3.5995 H         1 UNK         0.0000 
    104 H104       22.2755   15.2704   -4.4341 H         1 UNK         0.0000 
    105 H105       23.3343   17.6462   -2.8223 H         1 UNK         0.0000 
    106 H106       23.2036   17.5726   -4.5613 H         1 UNK         0.0000 
    107 Fe107      15.0355    6.1640   -1.7535 Fe        1 UNK         0.0000 
    108 H108       24.8421   15.6710   -4.6188 H         1 UNK         0.0000 
    109 H109       24.9995   15.7665   -2.8643 H         1 UNK         0.0000 
    110 H110       25.5761   18.4119   -3.9643 H         1 UNK         0.0000 
    111 H111       27.8953   17.9455   -4.0583 H         1 UNK         0.0000 
    112 H112       27.0971   14.9733   -3.7316 H         1 UNK         0.0000 
    113 H113       28.5191   15.7315   -3.0349 H         1 UNK         0.0000 
    114 C114       28.6487   15.4078   -5.1735 C.3       1 UNK         0.0000 
    115 H115       27.9797   15.4484   -6.0356 H         1 UNK         0.0000 
    116 C116       29.3280   14.0283   -5.1160 C.3       1 UNK         0.0000 
    117 H117       29.4041   16.1788   -5.3364 H         1 UNK         0.0000 
    118 H118       28.5681   13.2550   -4.9885 H         1 UNK         0.0000 
    119 H119       29.9694   13.9768   -4.2344 H         1 UNK         0.0000 
    120 C120       30.1610   13.7296   -6.3745 C.3       1 UNK         0.0000 
    121 H121       29.5139   13.7653   -7.2530 H         1 UNK         0.0000 
    122 C122       30.8694   12.3670   -6.3156 C.3       1 UNK         0.0000 
    123 H123       30.9052   14.5166   -6.5094 H         1 UNK         0.0000 
    124 H124       30.1311   11.5719   -6.1962 H         1 UNK         0.0000 
    125 H125       31.5139   12.3237   -5.4357 H         1 UNK         0.0000 
    126 C126       31.7119   12.0883   -7.5658 C.3       1 UNK         0.0000 
    127 H127       31.0961   12.0822   -8.4663 H         1 UNK         0.0000 
    128 H128       32.2019   11.1165   -7.4925 H         1 UNK         0.0000 
    129 H129       32.4898   12.8421   -7.6958 H         1 UNK         0.0000 
@<TRIPOS>BOND
     1    1    2 2    
     2    1  107 nc   
     3    2    3 1    
     4    2    4 am   BACKBONE|DICT|INTERRES
     5    3   62 1    
     6    3   63 1    
     7    3   64 1    
     8    4    5 1    
     9    4    6 1    
    10    5  107 nc   
    11    6    7 1    
    12    6   65 1    
    13    6   66 1    
    14    7    8 1    
    15    7   67 1    
    16    7   68 1    
    17    8    9 1    
    18    8   69 1    
    19    8   70 1    
    20    9   10 1    
    21    9   11 1    
    22    9   14 1    
    23   11   12 1    
    24   11   13 2    
    25   14   15 am   BACKBONE|DICT|INTERRES
    26   14   71 1    
    27   15   16 2    
    28   15   17 1    
    29   17   19 1    
    30   17   21 1    
    31   17   18 1    
    32   19   20 1    
    33   19   72 1    
    34   19   73 1    
    35   20   74 1    
    36   21   22 am   BACKBONE|DICT|INTERRES
    37   21   75 1    
    38   22   23 2    
    39   22   24 1    
    40   24   25 1    
    41   24   26 1    
    42   24   34 1    
    43   26   27 1    
    44   26   76 1    
    45   26   77 1    
    46   27   28 1    
    47   27   78 1    
    48   27   79 1    
    49   28   29 1    
    50   28   80 1    
    51   28   81 1    
    52   29   30 1    
    53   29   31 am   BACKBONE|DICT|INTERRES
    54   30  107 nc   
    55   31   32 2    
    56   31   33 1    
    57   32  107 nc   
    58   33   82 1    
    59   33   83 1    
    60   33   84 1    
    61   34   35 am   BACKBONE|DICT|INTERRES
    62   34   85 1    
    63   35   36 2    
    64   35   37 1    
    65   37   39 1    
    66   37   47 1    
    67   37   38 1    
    68   39   40 1    
    69   39   86 1    
    70   39   87 1    
    71   40   41 1    
    72   40   88 1    
    73   40   89 1    
    74   41   42 1    
    75   41   90 1    
    76   41   91 1    
    77   42   43 1    
    78   42   44 am   BACKBONE|DICT|INTERRES
    79   43  107 nc   
    80   44   45 2    
    81   44   46 1    
    82   45  107 nc   
    83   46   92 1    
    84   46   93 1    
    85   46   94 1    
    86   47   48 am   BACKBONE|DICT|INTERRES
    87   47   95 1    
    88   48   49 2    
    89   48   50 1    
    90   50   96 1    
    91   50   97 1    
    92   50   51 1    
    93   51   53 1    
    94   51   54 1    
    95   51   52 1    
    96   53   98 1    
    97   54   55 1    
    98   54   99 1    
    99   54  100 1    
   100   55   56 1    
   101   55  101 1    
   102   55  102 1    
   103   56   57 1    
   104   56  103 1    
   105   56  104 1    
   106   57   58 1    
   107   57  105 1    
   108   57  106 1    
   109   58   59 1    
   110   58  108 1    
   111   58  109 1    
   112   59   60 2    
   113   59  110 1    
   114   60   61 1    
   115   60  111 1    
   116   61  112 1    
   117   61  113 1    
   118   61  114 1    
   119  114  115 1    
   120  114  116 1    
   121  114  117 1    
   122  116  118 1    
   123  116  119 1    
   124  116  120 1    
   125  120  121 1    
   126  120  122 1    
   127  120  123 1    
   128  122  124 1    
   129  122  125 1    
   130  122  126 1    
   131  126  127 1    
   132  126  128 1    
   133  126  129 1    
@<TRIPOS>SUBSTRUCTURE
     1 UNK         1 GROUP             0       ****    0 ROOT    
@<TRIPOS>MOLECULE
042_c1
124   128    1
SMALL
USER_CHARGES


@<TRIPOS>ATOM
      1 O1         14.0036    5.1175   -3.1343 O.co2     1 UNK         0.0000 
      2 C2         13.2222    5.8561   -3.7486 C.2       1 UNK         0.0000 
      3 C3         12.3640    5.2852   -4.8721 C.3       1 UNK         0.0000 
      4 N4         13.1337    7.1586   -3.3594 N.am      1 UNK         0.0000 
      5 O5         13.9081    7.6891   -2.4074 O.co2     1 UNK         0.0000 
      6 C6         12.1184    8.0954   -3.8837 C.3       1 UNK         0.0000 
      7 C7         11.0763    8.5534   -2.8291 C.3       1 UNK         0.0000 
      8 C8         11.5629    9.5655   -1.7518 C.3       1 UNK         0.0000 
      9 C9         12.0164   10.9565   -2.2797 C.3       1 UNK         0.0000 
     10 H10        12.7273   10.8140   -3.0970 H         1 UNK         0.0000 
     11 C11        10.7841   11.7344   -2.8749 C.2       1 UNK         0.0000 
     12 O12        10.0030   12.2404   -2.0350 O.co2     1 UNK         0.0000 
     13 O13        10.6101   11.5791   -4.1020 O.co2     1 UNK         0.0000 
     14 N14        12.7156   11.7081   -1.2152 N.am      1 UNK         0.0000 
     15 C15        13.4130   12.8427   -1.3904 C.2       1 UNK         0.0000 
     16 O16        13.5620   13.4146   -2.4635 O.2       1 UNK         0.0000 
     17 C17        14.1188   13.4073   -0.1393 C.3       1 UNK         0.0000 
     18 H18        13.3807   13.4453    0.6577 H         1 UNK         0.0000 
     19 C19        14.6703   14.8454   -0.2944 C.3       1 UNK         0.0000 
     20 O20        13.6266   15.8030   -0.2767 O.3       1 UNK         0.0000 
     21 N21        15.1686   12.5033    0.3337 N.am      1 UNK         0.0000 
     22 C22        16.2956   12.1906   -0.3167 C.2       1 UNK         0.0000 
     23 O23        16.6645   12.7387   -1.3520 O.2       1 UNK         0.0000 
     24 C24        17.1901   11.1078    0.3187 C.3       1 UNK         0.0000 
     25 H25        17.5101   11.4715    1.2985 H         1 UNK         0.0000 
     26 C26        16.4613    9.7515    0.4529 C.3       1 UNK         0.0000 
     27 C27        15.2593    9.5917    1.4041 C.3       1 UNK         0.0000 
     28 C28        14.9981    8.1225    1.8184 C.3       1 UNK         0.0000 
     29 N29        14.7391    7.1660    0.7150 N.am      1 UNK         0.0000 
     30 O30        15.7723    7.0415   -0.1258 O.co2     1 UNK         0.0000 
     31 C31        13.5925    6.4449    0.5454 C.2       1 UNK         0.0000 
     32 O32        13.5142    5.7171   -0.4579 O.co2     1 UNK         0.0000 
     33 C33        12.4047    6.5032    1.5014 C.3       1 UNK         0.0000 
     34 N34        18.3807   10.9050   -0.5114 N.am      1 UNK         0.0000 
     35 C35        19.4456   10.1866   -0.1168 C.2       1 UNK         0.0000 
     36 O36        19.6361    9.8734    1.0575 O.2       1 UNK         0.0000 
     37 C37        20.4370    9.7016   -1.1815 C.3       1 UNK         0.0000 
     38 H38        20.3171   10.3834   -2.0303 H         1 UNK         0.0000 
     39 C39        20.2050    8.2561   -1.6862 C.3       1 UNK         0.0000 
     40 C40        18.7869    7.7573   -1.9496 C.3       1 UNK         0.0000 
     41 C41        18.7888    6.2680   -2.3826 C.3       1 UNK         0.0000 
     42 N42        17.4582    5.6540   -2.3045 N.am      1 UNK         0.0000 
     43 O43        16.5417    6.3781   -2.9517 O.co2     1 UNK         0.0000 
     44 C44        17.1371    4.6148   -1.4846 C.2       1 UNK         0.0000 
     45 O45        15.9296    4.4528   -1.2409 O.co2     1 UNK         0.0000 
     46 C46        18.1761    3.7053   -0.8274 C.3       1 UNK         0.0000 
     47 N47        21.7854    9.7239   -0.6256 N.am      1 UNK         0.0000 
     48 C48        22.9241    9.7631   -1.3393 C.2       1 UNK         0.0000 
     49 O49        23.9890    9.4347   -0.8484 O.2       1 UNK         0.0000 
     50 C50        22.8808   10.3512   -2.7458 C.3       1 UNK         0.0000 
     51 H51        12.6198    4.2474   -5.0542 H         1 UNK         0.0000 
     52 H52        11.3076    5.3367   -4.6200 H         1 UNK         0.0000 
     53 H53        12.5276    5.8334   -5.7958 H         1 UNK         0.0000 
     54 H54        12.6457    8.9570   -4.3071 H         1 UNK         0.0000 
     55 H55        11.5594    7.6946   -4.7297 H         1 UNK         0.0000 
     56 H56        10.6935    7.6595   -2.3407 H         1 UNK         0.0000 
     57 H57        10.2307    8.9975   -3.3614 H         1 UNK         0.0000 
     58 H58        12.3640    9.1193   -1.1627 H         1 UNK         0.0000 
     59 H59        10.7476    9.7011   -1.0370 H         1 UNK         0.0000 
     60 H60        12.5664   11.3538   -0.2862 H         1 UNK         0.0000 
     61 H61        15.2885   14.9582   -1.1905 H         1 UNK         0.0000 
     62 H62        15.3192   15.0859    0.5469 H         1 UNK         0.0000 
     63 H63        13.2465   15.8432   -1.1676 H         1 UNK         0.0000 
     64 H64        14.9588   12.0101    1.1866 H         1 UNK         0.0000 
     65 H65        17.2050    9.0163    0.7764 H         1 UNK         0.0000 
     66 H66        16.1359    9.4631   -0.5534 H         1 UNK         0.0000 
     67 H67        14.3561    9.9825    0.9437 H         1 UNK         0.0000 
     68 H68        15.4328   10.1655    2.3159 H         1 UNK         0.0000 
     69 H69        15.8930    7.7380    2.3216 H         1 UNK         0.0000 
     70 H70        14.2377    8.1493    2.5878 H         1 UNK         0.0000 
     71 H71        12.5270    7.0999    2.4001 H         1 UNK         0.0000 
     72 H72        12.1919    5.4905    1.8337 H         1 UNK         0.0000 
     73 H73        11.5273    6.8855    0.9802 H         1 UNK         0.0000 
     74 H74        18.2882   11.2362   -1.4667 H         1 UNK         0.0000 
     75 H75        20.7934    8.1262   -2.5965 H         1 UNK         0.0000 
     76 H76        20.6437    7.5819   -0.9462 H         1 UNK         0.0000 
     77 H77        18.2931    8.3629   -2.7133 H         1 UNK         0.0000 
     78 H78        18.2047    7.8487   -1.0326 H         1 UNK         0.0000 
     79 H79        19.1736    6.1718   -3.4026 H         1 UNK         0.0000 
     80 H80        19.5155    5.7519   -1.7591 H         1 UNK         0.0000 
     81 H81        17.8488    2.6683   -0.8942 H         1 UNK         0.0000 
     82 H82        18.2677    3.9647    0.2263 H         1 UNK         0.0000 
     83 H83        19.1620    3.7500   -1.2940 H         1 UNK         0.0000 
     84 H84        21.8368    9.4985    0.3610 H         1 UNK         0.0000 
     85 Fe85       14.9611    6.1302   -1.7303 Fe        1 UNK         0.0000 
     86 H86        22.1273    9.8521   -3.3552 H         1 UNK         0.0000 
     87 H87        23.8288   10.1762   -3.2590 H         1 UNK         0.0000 
     88 C88        22.6105   11.8551   -2.6285 C.3       1 UNK         0.0000 
     89 H89        22.0058   12.0950   -1.7473 H         1 UNK         0.0000 
     90 C90        21.8735   12.4473   -3.8143 C.3       1 UNK         0.0000 
     91 H91        23.5599   12.3691   -2.4672 H         1 UNK         0.0000 
     92 H92        20.8944   11.9810   -3.9438 H         1 UNK         0.0000 
     93 H93        22.4363   12.2895   -4.7352 H         1 UNK         0.0000 
     94 C94        21.7055   13.9300   -3.5303 C.3       1 UNK         0.0000 
     95 H95        21.0673   14.0789   -2.6554 H         1 UNK         0.0000 
     96 C96        21.1222   14.6711   -4.7078 C.3       1 UNK         0.0000 
     97 H97        22.6777   14.3625   -3.2838 H         1 UNK         0.0000 
     98 H98        20.0953   14.3478   -4.8951 H         1 UNK         0.0000 
     99 H99        21.6986   14.4520   -5.6097 H         1 UNK         0.0000 
    100 C100       21.1721   16.1573   -4.4112 C.3       1 UNK         0.0000 
    101 H101       20.5593   16.3907   -3.5368 H         1 UNK         0.0000 
    102 C102       20.6929   16.9332   -5.6137 C.3       1 UNK         0.0000 
    103 H103       22.1952   16.4572   -4.1676 H         1 UNK         0.0000 
    104 H104       19.6634   16.6500   -5.8440 H         1 UNK         0.0000 
    105 H105       21.2985   16.6736   -6.4851 H         1 UNK         0.0000 
    106 C106       20.7858   18.4205   -5.3440 C.3       1 UNK         0.0000 
    107 H107       20.1884   18.6790   -4.4673 H         1 UNK         0.0000 
    108 C108       20.2904   19.1712   -6.5609 C.3       1 UNK         0.0000 
    109 H109       21.8177   18.6990   -5.1198 H         1 UNK         0.0000 
    110 H110       19.2707   18.8562   -6.7922 H         1 UNK         0.0000 
    111 H111       20.9023   18.9078   -7.4260 H         1 UNK         0.0000 
    112 C112       20.3288   20.6699   -6.3284 C.3       1 UNK         0.0000 
    113 H113       19.7226   20.9245   -5.4571 H         1 UNK         0.0000 
    114 C114       19.8065   21.3863   -7.5649 C.3       1 UNK         0.0000 
    115 H115       21.3508   20.9845   -6.1088 H         1 UNK         0.0000 
    116 H116       18.7908   21.0446   -7.7766 H         1 UNK         0.0000 
    117 H117       20.4150   21.1047   -8.4272 H         1 UNK         0.0000 
    118 C118       19.8171   22.9004   -7.3953 C.3       1 UNK         0.0000 
    119 H119       19.2066   23.1834   -6.5354 H         1 UNK         0.0000 
    120 C120       19.2854   23.5822   -8.6485 C.3       1 UNK         0.0000 
    121 H121       20.8327   23.2453   -7.1908 H         1 UNK         0.0000 
    122 H122       18.2603   23.2693   -8.8546 H         1 UNK         0.0000 
    123 H123       19.8979   23.3306   -9.5161 H         1 UNK         0.0000 
    124 H124       19.2999   24.6623   -8.5125 H         1 UNK         0.0000 
@<TRIPOS>BOND
     1    1    2 2    
     2    1   85 nc   
     3    2    3 1    
     4    2    4 am   BACKBONE|DICT|INTERRES
     5    3   51 1    
     6    3   52 1    
     7    3   53 1    
     8    4    5 1    
     9    4    6 1    
    10    5   85 nc   
    11    6    7 1    
    12    6   54 1    
    13    6   55 1    
    14    7    8 1    
    15    7   56 1    
    16    7   57 1    
    17    8    9 1    
    18    8   58 1    
    19    8   59 1    
    20    9   10 1    
    21    9   11 1    
    22    9   14 1    
    23   11   12 1    
    24   11   13 2    
    25   14   15 am   BACKBONE|DICT|INTERRES
    26   14   60 1    
    27   15   16 2    
    28   15   17 1    
    29   17   19 1    
    30   17   21 1    
    31   17   18 1    
    32   19   20 1    
    33   19   61 1    
    34   19   62 1    
    35   20   63 1    
    36   21   22 am   BACKBONE|DICT|INTERRES
    37   21   64 1    
    38   22   23 2    
    39   22   24 1    
    40   24   25 1    
    41   24   26 1    
    42   24   34 1    
    43   26   27 1    
    44   26   65 1    
    45   26   66 1    
    46   27   28 1    
    47   27   67 1    
    48   27   68 1    
    49   28   29 1    
    50   28   69 1    
    51   28   70 1    
    52   29   30 1    
    53   29   31 am   BACKBONE|DICT|INTERRES
    54   30   85 nc   
    55   31   32 2    
    56   31   33 1    
    57   32   85 nc   
    58   33   71 1    
    59   33   72 1    
    60   33   73 1    
    61   34   35 am   BACKBONE|DICT|INTERRES
    62   34   74 1    
    63   35   36 2    
    64   35   37 1    
    65   37   39 1    
    66   37   47 1    
    67   37   38 1    
    68   39   40 1    
    69   39   75 1    
    70   39   76 1    
    71   40   41 1    
    72   40   77 1    
    73   40   78 1    
    74   41   42 1    
    75   41   79 1    
    76   41   80 1    
    77   42   43 1    
    78   42   44 am   BACKBONE|DICT|INTERRES
    79   43   85 nc   
    80   44   45 2    
    81   44   46 1    
    82   45   85 nc   
    83   46   81 1    
    84   46   82 1    
    85   46   83 1    
    86   47   48 am   BACKBONE|DICT|INTERRES
    87   47   84 1    
    88   48   49 2    
    89   48   50 1    
    90   50   86 1    
    91   50   87 1    
    92   50   88 1    
    93   88   89 1    
    94   88   90 1    
    95   88   91 1    
    96   90   92 1    
    97   90   93 1    
    98   90   94 1    
    99   94   95 1    
   100   94   96 1    
   101   94   97 1    
   102   96   98 1    
   103   96   99 1    
   104   96  100 1    
   105  100  101 1    
   106  100  102 1    
   107  100  103 1    
   108  102  104 1    
   109  102  105 1    
   110  102  106 1    
   111  106  107 1    
   112  106  108 1    
   113  106  109 1    
   114  108  110 1    
   115  108  111 1    
   116  108  112 1    
   117  112  113 1    
   118  112  114 1    
   119  112  115 1    
   120  114  116 1    
   121  114  117 1    
   122  114  118 1    
   123  118  119 1    
   124  118  120 1    
   125  118  121 1    
   126  120  122 1    
   127  120  123 1    
   128  120  124 1    
@<TRIPOS>SUBSTRUCTURE
     1 UNK         1 GROUP             0       ****    0 ROOT    
@<TRIPOS>MOLECULE
043_c1
128   132    1
SMALL
USER_CHARGES


@<TRIPOS>ATOM
      1 O1         13.9586    5.1137   -3.1464 O.co2     1 UNK         0.0000 
      2 C2         13.1737    5.8560   -3.7526 C.2       1 UNK         0.0000 
      3 C3         12.3117    5.2870   -4.8759 C.3       1 UNK         0.0000 
      4 N4         13.0931    7.1558   -3.3581 N.am      1 UNK         0.0000 
      5 O5         13.8769    7.6839   -2.4093 O.co2     1 UNK         0.0000 
      6 C6         12.0822    8.0988   -3.8814 C.3       1 UNK         0.0000 
      7 C7         11.0515    8.5769   -2.8243 C.3       1 UNK         0.0000 
      8 C8         11.5565    9.5829   -1.7498 C.3       1 UNK         0.0000 
      9 C9         12.0476   10.9594   -2.2855 C.3       1 UNK         0.0000 
     10 H10        12.7530   10.7897   -3.1019 H         1 UNK         0.0000 
     11 C11        10.8385   11.7718   -2.8802 C.2       1 UNK         0.0000 
     12 O12        10.0914   12.3165   -2.0306 O.co2     1 UNK         0.0000 
     13 O13        10.6487   11.6082   -4.1051 O.co2     1 UNK         0.0000 
     14 N14        12.7698   11.6967   -1.2248 N.am      1 UNK         0.0000 
     15 C15        13.5219   12.7938   -1.4117 C.2       1 UNK         0.0000 
     16 O16        13.7443   13.3174   -2.4972 O.2       1 UNK         0.0000 
     17 C17        14.2011   13.3694   -0.1499 C.3       1 UNK         0.0000 
     18 H18        13.4473   13.4065    0.6333 H         1 UNK         0.0000 
     19 C19        14.7653   14.8040   -0.3076 C.3       1 UNK         0.0000 
     20 O20        13.7426   15.7834   -0.3234 O.3       1 UNK         0.0000 
     21 N21        15.2377   12.4611    0.3468 N.am      1 UNK         0.0000 
     22 C22        16.3793   12.1401   -0.2744 C.2       1 UNK         0.0000 
     23 O23        16.7860   12.6913   -1.2941 O.2       1 UNK         0.0000 
     24 C24        17.2352   11.0357    0.3791 C.3       1 UNK         0.0000 
     25 H25        17.5470   11.3839    1.3665 H         1 UNK         0.0000 
     26 C26        16.4774    9.6930    0.4951 C.3       1 UNK         0.0000 
     27 C27        15.2436    9.5584    1.4116 C.3       1 UNK         0.0000 
     28 C28        14.9361    8.0966    1.8251 C.3       1 UNK         0.0000 
     29 N29        14.6754    7.1389    0.7238 N.am      1 UNK         0.0000 
     30 O30        15.7149    7.0046   -0.1070 O.co2     1 UNK         0.0000 
     31 C31        13.5246    6.4296    0.5404 C.2       1 UNK         0.0000 
     32 O32        13.4526    5.6989   -0.4636 O.co2     1 UNK         0.0000 
     33 C33        12.3280    6.4917    1.4887 C.3       1 UNK         0.0000 
     34 N34        18.4340   10.8214   -0.4340 N.am      1 UNK         0.0000 
     35 C35        19.4844   10.0881   -0.0406 C.2       1 UNK         0.0000 
     36 O36        19.6666    9.7494    1.1277 O.2       1 UNK         0.0000 
     37 C37        20.4664    9.6082   -1.1190 C.3       1 UNK         0.0000 
     38 H38        20.3486   10.2943   -1.9635 H         1 UNK         0.0000 
     39 C39        20.2150    8.1603   -1.6095 C.3       1 UNK         0.0000 
     40 C40        18.7887    7.7021   -1.9199 C.3       1 UNK         0.0000 
     41 C41        18.7551    6.2196   -2.3720 C.3       1 UNK         0.0000 
     42 N42        17.4136    5.6269   -2.2947 N.am      1 UNK         0.0000 
     43 O43        16.5036    6.3674   -2.9349 O.co2     1 UNK         0.0000 
     44 C44        17.0774    4.5825   -1.4893 C.2       1 UNK         0.0000 
     45 O45        15.8681    4.4314   -1.2482 O.co2     1 UNK         0.0000 
     46 C46        18.1036    3.6533   -0.8340 C.3       1 UNK         0.0000 
     47 N47        21.8168    9.6225   -0.5728 N.am      1 UNK         0.0000 
     48 C48        22.9537    9.6907   -1.2843 C.2       1 UNK         0.0000 
     49 O49        24.0141    9.3200   -0.8059 O.2       1 UNK         0.0000 
     50 C50        22.9250   10.3465   -2.6639 C.3       1 UNK         0.0000 
     51 H51        12.5613    4.2467   -5.0523 H         1 UNK         0.0000 
     52 H52        11.2568    5.3450   -4.6220 H         1 UNK         0.0000 
     53 H53        12.4765    5.8294   -5.8031 H         1 UNK         0.0000 
     54 H54        12.6084    8.9545   -4.3163 H         1 UNK         0.0000 
     55 H55        11.5109    7.6960   -4.7194 H         1 UNK         0.0000 
     56 H56        10.6481    7.6920   -2.3362 H         1 UNK         0.0000 
     57 H57        10.2133    9.0376   -3.3547 H         1 UNK         0.0000 
     58 H58        12.3418    9.1165   -1.1542 H         1 UNK         0.0000 
     59 H59        10.7419    9.7434   -1.0403 H         1 UNK         0.0000 
     60 H60        12.5685   11.3805   -0.2923 H         1 UNK         0.0000 
     61 H61        15.3773   14.9136   -1.2067 H         1 UNK         0.0000 
     62 H62        15.4200   15.0335    0.5314 H         1 UNK         0.0000 
     63 H63        13.3476   15.7707   -1.2110 H         1 UNK         0.0000 
     64 H64        14.9961   11.9539    1.1831 H         1 UNK         0.0000 
     65 H65        17.1973    8.9403    0.8294 H         1 UNK         0.0000 
     66 H66        16.1717    9.4155   -0.5185 H         1 UNK         0.0000 
     67 H67        14.3613    9.9644    0.9218 H         1 UNK         0.0000 
     68 H68        15.4048   10.1329    2.3255 H         1 UNK         0.0000 
     69 H69        15.8074    7.6961    2.3541 H         1 UNK         0.0000 
     70 H70        14.1548    8.1464    2.5719 H         1 UNK         0.0000 
     71 H71        12.4611    7.0686    2.3987 H         1 UNK         0.0000 
     72 H72        12.0923    5.4762    1.8002 H         1 UNK         0.0000 
     73 H73        11.4620    6.8991    0.9671 H         1 UNK         0.0000 
     74 H74        18.3521   11.1741   -1.3819 H         1 UNK         0.0000 
     75 H75        20.8387    7.9950   -2.4909 H         1 UNK         0.0000 
     76 H76        20.5975    7.4875   -0.8368 H         1 UNK         0.0000 
     77 H77        18.3324    8.3289   -2.6892 H         1 UNK         0.0000 
     78 H78        18.1806    7.8015   -1.0201 H         1 UNK         0.0000 
     79 H79        19.1340    6.1308   -3.3948 H         1 UNK         0.0000 
     80 H80        19.4723    5.6755   -1.7600 H         1 UNK         0.0000 
     81 H81        17.7582    2.6218   -0.8892 H         1 UNK         0.0000 
     82 H82        18.2078    3.9189    0.2170 H         1 UNK         0.0000 
     83 H83        19.0860    3.6760   -1.3063 H         1 UNK         0.0000 
     84 H84        21.8671    9.3485    0.4002 H         1 UNK         0.0000 
     85 Fe85       14.9197    6.1141   -1.7359 Fe        1 UNK         0.0000 
     86 H86        22.1417    9.9015   -3.2796 H         1 UNK         0.0000 
     87 H87        23.8636   10.1541   -3.1890 H         1 UNK         0.0000 
     88 C88        22.7455   11.8613   -2.4654 C.3       1 UNK         0.0000 
     89 H89        22.0238   12.0674   -1.6695 H         1 UNK         0.0000 
     90 C90        22.2584   12.6240   -3.6886 C.3       1 UNK         0.0000 
     91 H91        23.6934   12.2823   -2.1237 H         1 UNK         0.0000 
     92 H92        21.2926   12.2222   -4.0040 H         1 UNK         0.0000 
     93 H93        22.9437   12.4986   -4.5288 H         1 UNK         0.0000 
     94 C94        22.1241   14.1094   -3.3224 C.3       1 UNK         0.0000 
     95 H95        21.4925   14.2113   -2.4364 H         1 UNK         0.0000 
     96 C96        21.5057   14.9172   -4.4480 C.3       1 UNK         0.0000 
     97 H97        23.1008   14.5212   -3.0614 H         1 UNK         0.0000 
     98 H98        20.5517   14.4528   -4.7113 H         1 UNK         0.0000 
     99 H99        22.1344   14.8505   -5.3387 H         1 UNK         0.0000 
    100 C100       21.2760   16.3896   -4.0776 C.3       1 UNK         0.0000 
    101 H101       20.7289   16.4747   -3.1370 H         1 UNK         0.0000 
    102 C102       20.4733   17.0188   -5.2034 C.3       1 UNK         0.0000 
    103 H103       22.2276   16.9081   -3.9434 H         1 UNK         0.0000 
    104 H104       19.5598   16.4382   -5.3371 H         1 UNK         0.0000 
    105 H105       21.0567   16.9501   -6.1210 H         1 UNK         0.0000 
    106 C106       20.0530   18.4568   -5.0318 C.2       1 UNK         0.0000 
    107 C107       19.3161   19.0917   -5.9582 C.2       1 UNK         0.0000 
    108 H108       20.3651   18.9793   -4.1367 H         1 UNK         0.0000 
    109 C109       18.8270   18.4510   -7.2530 C.3       1 UNK         0.0000 
    110 H110       19.0395   20.1253   -5.8026 H         1 UNK         0.0000 
    111 H111       18.5577   17.4111   -7.0540 H         1 UNK         0.0000 
    112 C112       19.8671   18.4825   -8.3913 C.3       1 UNK         0.0000 
    113 H113       17.8908   18.9149   -7.5664 H         1 UNK         0.0000 
    114 H114       20.7825   17.9700   -8.0883 H         1 UNK         0.0000 
    115 C115       20.2000   19.9172   -8.8186 C.3       1 UNK         0.0000 
    116 H116       19.4777   17.9165   -9.2411 H         1 UNK         0.0000 
    117 H117       20.5935   20.4683   -7.9616 H         1 UNK         0.0000 
    118 H118       19.2710   20.4134   -9.1039 H         1 UNK         0.0000 
    119 C119       21.2106   20.0191   -9.9695 C.3       1 UNK         0.0000 
    120 H120       22.1796   19.6300   -9.6476 H         1 UNK         0.0000 
    121 C121       21.3503   21.4803  -10.4244 C.3       1 UNK         0.0000 
    122 H122       20.8892   19.3976  -10.8068 H         1 UNK         0.0000 
    123 H123       21.6937   22.0934   -9.5890 H         1 UNK         0.0000 
    124 H124       20.3678   21.8654  -10.7043 H         1 UNK         0.0000 
    125 C125       22.3003   21.6688  -11.6061 C.3       1 UNK         0.0000 
    126 H126       23.3194   21.3789  -11.3481 H         1 UNK         0.0000 
    127 H127       22.3157   22.7188  -11.9058 H         1 UNK         0.0000 
    128 H128       21.9819   21.0815  -12.4686 H         1 UNK         0.0000 
@<TRIPOS>BOND
     1    1    2 2    
     2    1   85 nc   
     3    2    3 1    
     4    2    4 am   BACKBONE|DICT|INTERRES
     5    3   51 1    
     6    3   52 1    
     7    3   53 1    
     8    4    5 1    
     9    4    6 1    
    10    5   85 nc   
    11    6    7 1    
    12    6   54 1    
    13    6   55 1    
    14    7    8 1    
    15    7   56 1    
    16    7   57 1    
    17    8    9 1    
    18    8   58 1    
    19    8   59 1    
    20    9   10 1    
    21    9   11 1    
    22    9   14 1    
    23   11   12 1    
    24   11   13 2    
    25   14   15 am   BACKBONE|DICT|INTERRES
    26   14   60 1    
    27   15   16 2    
    28   15   17 1    
    29   17   19 1    
    30   17   21 1    
    31   17   18 1    
    32   19   20 1    
    33   19   61 1    
    34   19   62 1    
    35   20   63 1    
    36   21   22 am   BACKBONE|DICT|INTERRES
    37   21   64 1    
    38   22   23 2    
    39   22   24 1    
    40   24   25 1    
    41   24   26 1    
    42   24   34 1    
    43   26   27 1    
    44   26   65 1    
    45   26   66 1    
    46   27   28 1    
    47   27   67 1    
    48   27   68 1    
    49   28   29 1    
    50   28   69 1    
    51   28   70 1    
    52   29   30 1    
    53   29   31 am   BACKBONE|DICT|INTERRES
    54   30   85 nc   
    55   31   32 2    
    56   31   33 1    
    57   32   85 nc   
    58   33   71 1    
    59   33   72 1    
    60   33   73 1    
    61   34   35 am   BACKBONE|DICT|INTERRES
    62   34   74 1    
    63   35   36 2    
    64   35   37 1    
    65   37   39 1    
    66   37   47 1    
    67   37   38 1    
    68   39   40 1    
    69   39   75 1    
    70   39   76 1    
    71   40   41 1    
    72   40   77 1    
    73   40   78 1    
    74   41   42 1    
    75   41   79 1    
    76   41   80 1    
    77   42   43 1    
    78   42   44 am   BACKBONE|DICT|INTERRES
    79   43   85 nc   
    80   44   45 2    
    81   44   46 1    
    82   45   85 nc   
    83   46   81 1    
    84   46   82 1    
    85   46   83 1    
    86   47   48 am   BACKBONE|DICT|INTERRES
    87   47   84 1    
    88   48   49 2    
    89   48   50 1    
    90   50   86 1    
    91   50   87 1    
    92   50   88 1    
    93   88   89 1    
    94   88   90 1    
    95   88   91 1    
    96   90   92 1    
    97   90   93 1    
    98   90   94 1    
    99   94   95 1    
   100   94   96 1    
   101   94   97 1    
   102   96   98 1    
   103   96   99 1    
   104   96  100 1    
   105  100  101 1    
   106  100  102 1    
   107  100  103 1    
   108  102  104 1    
   109  102  105 1    
   110  102  106 1    
   111  106  107 2    
   112  106  108 1    
   113  107  109 1    
   114  107  110 1    
   115  109  111 1    
   116  109  112 1    
   117  109  113 1    
   118  112  114 1    
   119  112  115 1    
   120  112  116 1    
   121  115  117 1    
   122  115  118 1    
   123  115  119 1    
   124  119  120 1    
   125  119  121 1    
   126  119  122 1    
   127  121  123 1    
   128  121  124 1    
   129  121  125 1    
   130  125  126 1    
   131  125  127 1    
   132  125  128 1    
@<TRIPOS>SUBSTRUCTURE
     1 UNK         1 GROUP             0       ****    0 ROOT    
@<TRIPOS>MOLECULE
044_c1
131   135    1
SMALL
USER_CHARGES


@<TRIPOS>ATOM
      1 O1         13.3119    5.2535   -2.9702 O.co2     1 UNK         0.0000 
      2 C2         12.4948    6.0481   -3.4578 C.2       1 UNK         0.0000 
      3 C3         11.4544    5.5478   -4.4583 C.3       1 UNK         0.0000 
      4 N4         12.5451    7.3424   -3.0447 N.am      1 UNK         0.0000 
      5 O5         13.4835    7.8111   -2.2120 O.co2     1 UNK         0.0000 
      6 C6         11.5334    8.3528   -3.4251 C.3       1 UNK         0.0000 
      7 C7         10.6568    8.8538   -2.2475 C.3       1 UNK         0.0000 
      8 C8         11.3334    9.8009   -1.2166 C.3       1 UNK         0.0000 
      9 C9         11.8259   11.1698   -1.7724 C.3       1 UNK         0.0000 
     10 H10        12.4298   10.9874   -2.6627 H         1 UNK         0.0000 
     11 C11        10.6014   12.0524   -2.2226 C.2       1 UNK         0.0000 
     12 O12         9.9587   12.5839   -1.2841 O.co2     1 UNK         0.0000 
     13 O13        10.3090   11.9553   -3.4358 O.co2     1 UNK         0.0000 
     14 N14        12.7008   11.8442   -0.7860 N.am      1 UNK         0.0000 
     15 C15        13.4553   12.9329   -1.0192 C.2       1 UNK         0.0000 
     16 O16        13.5569   13.4987   -2.1037 O.2       1 UNK         0.0000 
     17 C17        14.3139   13.4226    0.1685 C.3       1 UNK         0.0000 
     18 H18        13.6638   13.4687    1.0408 H         1 UNK         0.0000 
     19 C19        14.9487   14.8265   -0.0195 C.3       1 UNK         0.0000 
     20 O20        14.0088   15.8783    0.1129 O.3       1 UNK         0.0000 
     21 N21        15.3556   12.4427    0.4931 N.am      1 UNK         0.0000 
     22 C22        16.3618   12.0733   -0.3103 C.2       1 UNK         0.0000 
     23 O23        16.6166   12.6136   -1.3854 O.2       1 UNK         0.0000 
     24 C24        17.2669   10.9277    0.1810 C.3       1 UNK         0.0000 
     25 H25        17.7610   11.2494    1.0999 H         1 UNK         0.0000 
     26 C26        16.4975    9.6074    0.4205 C.3       1 UNK         0.0000 
     27 C27        15.3753    9.5213    1.4815 C.3       1 UNK         0.0000 
     28 C28        15.0086    8.0726    1.9089 C.3       1 UNK         0.0000 
     29 N29        14.5575    7.1574    0.8313 N.am      1 UNK         0.0000 
     30 O30        15.4871    6.9741   -0.1094 O.co2     1 UNK         0.0000 
     31 C31        13.3479    6.5297    0.7664 C.2       1 UNK         0.0000 
     32 O32        13.1261    5.8164   -0.2298 O.co2     1 UNK         0.0000 
     33 C33        12.2649    6.6478    1.8411 C.3       1 UNK         0.0000 
     34 N34        18.2793   10.6995   -0.8496 N.am      1 UNK         0.0000 
     35 C35        19.3814    9.9625   -0.6927 C.2       1 UNK         0.0000 
     36 O36        19.8023    9.5986    0.4035 O.2       1 UNK         0.0000 
     37 C37        20.1095    9.4998   -1.9645 C.3       1 UNK         0.0000 
     38 H38        19.6653   10.0127   -2.8175 H         1 UNK         0.0000 
     39 C39        19.9207    7.9814   -2.2203 C.3       1 UNK         0.0000 
     40 C40        18.4563    7.4927   -2.2472 C.3       1 UNK         0.0000 
     41 C41        18.2772    6.0008   -2.6270 C.3       1 UNK         0.0000 
     42 N42        16.8958    5.5095   -2.4330 N.am      1 UNK         0.0000 
     43 O43        15.9788    6.3113   -2.9911 O.co2     1 UNK         0.0000 
     44 C44        16.5508    4.4843   -1.6072 C.2       1 UNK         0.0000 
     45 O45        15.3573    4.4128   -1.2675 O.co2     1 UNK         0.0000 
     46 C46        17.5530    3.4690   -1.0542 C.3       1 UNK         0.0000 
     47 N47        21.5221    9.8242   -1.7958 N.am      1 UNK         0.0000 
     48 C48        22.3111   10.6057   -2.5501 C.2       1 UNK         0.0000 
     49 O49        23.4716   10.8088   -2.2162 O.2       1 UNK         0.0000 
     50 C50        21.7724   11.2623   -3.8233 C.3       1 UNK         0.0000 
     51 C51        20.8349   12.4567   -3.5486 C.3       1 UNK         0.0000 
     52 H52        19.9615   12.1357   -2.9800 H         1 UNK         0.0000 
     53 O53        20.3358   12.9029   -4.7916 O.3       1 UNK         0.0000 
     54 C54        21.4457   13.6383   -2.7552 C.3       1 UNK         0.0000 
     55 C55        22.7438   14.2909   -3.2874 C.3       1 UNK         0.0000 
     56 C56        22.6116   14.9005   -4.6966 C.3       1 UNK         0.0000 
     57 C57        23.6180   16.0172   -5.0115 C.3       1 UNK         0.0000 
     58 C58        25.0996   15.6078   -4.9445 C.3       1 UNK         0.0000 
     59 C59        25.9990   16.7628   -5.4111 C.3       1 UNK         0.0000 
     60 C60        27.5074   16.4968   -5.2849 C.3       1 UNK         0.0000 
     61 C61        28.3130   17.6882   -5.8318 C.3       1 UNK         0.0000 
     62 C62        29.8351   17.5506   -5.6775 C.3       1 UNK         0.0000 
     63 C63        30.5703   18.7522   -6.2953 C.3       1 UNK         0.0000 
     64 H64        11.6026    4.4913   -4.6647 H         1 UNK         0.0000 
     65 H65        10.4475    5.6790   -4.0679 H         1 UNK         0.0000 
     66 H66        11.5350    6.0849   -5.4012 H         1 UNK         0.0000 
     67 H67        12.0480    9.1936   -3.8983 H         1 UNK         0.0000 
     68 H68        10.8499    8.0047   -4.2011 H         1 UNK         0.0000 
     69 H69        10.2501    7.9835   -1.7350 H         1 UNK         0.0000 
     70 H70         9.7941    9.3765   -2.6682 H         1 UNK         0.0000 
     71 H71        12.1558    9.2795   -0.7282 H         1 UNK         0.0000 
     72 H72        10.6165    9.9849   -0.4135 H         1 UNK         0.0000 
     73 H73        12.6246   11.4848    0.1481 H         1 UNK         0.0000 
     74 H74        15.4451   14.9198   -0.9880 H         1 UNK         0.0000 
     75 H75        15.7219   14.9840    0.7306 H         1 UNK         0.0000 
     76 H76        13.5557   15.9664   -0.7382 H         1 UNK         0.0000 
     77 H77        15.2257   11.9449    1.3581 H         1 UNK         0.0000 
     78 H78        17.2315    8.8359    0.6668 H         1 UNK         0.0000 
     79 H79        16.0602    9.3347   -0.5428 H         1 UNK         0.0000 
     80 H80        14.4696   10.0001    1.1129 H         1 UNK         0.0000 
     81 H81        15.6854   10.0635    2.3764 H         1 UNK         0.0000 
     82 H82        15.8998    7.6047    2.3367 H         1 UNK         0.0000 
     83 H83        14.3184    8.1563    2.7400 H         1 UNK         0.0000 
     84 H84        12.5296    7.2177    2.7258 H         1 UNK         0.0000 
     85 H85        12.0050    5.6463    2.1801 H         1 UNK         0.0000 
     86 H86        11.3703    7.1024    1.4154 H         1 UNK         0.0000 
     87 H87        18.0068   11.0735   -1.7519 H         1 UNK         0.0000 
     88 H88        20.4007    7.7360   -3.1698 H         1 UNK         0.0000 
     89 H89        20.4553    7.4224   -1.4496 H         1 UNK         0.0000 
     90 H90        17.8835    8.1051   -2.9467 H         1 UNK         0.0000 
     91 H91        18.0097    7.6371   -1.2623 H         1 UNK         0.0000 
     92 H92        18.5685    5.8503   -3.6692 H         1 UNK         0.0000 
     93 H93        19.0056    5.4344   -2.0484 H         1 UNK         0.0000 
     94 H94        17.1306    2.4664   -1.1191 H         1 UNK         0.0000 
     95 H95        17.7437    3.6871   -0.0043 H         1 UNK         0.0000 
     96 H96        18.4988    3.4451   -1.5933 H         1 UNK         0.0000 
     97 H97        21.9078    9.4887   -0.9236 H         1 UNK         0.0000 
     98 H98        21.2825   10.5013   -4.4307 H         1 UNK         0.0000 
     99 H99        22.6238   11.6049   -4.4159 H         1 UNK         0.0000 
    100 H100       19.8184   12.2048   -5.1985 H         1 UNK         0.0000 
    101 H101       21.6355   13.2960   -1.7350 H         1 UNK         0.0000 
    102 H102       20.6793   14.4097   -2.6528 H         1 UNK         0.0000 
    103 H103       23.5650   13.5690   -3.2747 H         1 UNK         0.0000 
    104 H104       23.0258   15.0736   -2.5792 H         1 UNK         0.0000 
    105 H105       21.6101   15.3207   -4.8136 H         1 UNK         0.0000 
    106 H106       22.6881   14.1055   -5.4414 H         1 UNK         0.0000 
    107 H107       23.4443   16.8531   -4.3308 H         1 UNK         0.0000 
    108 H108       23.3955   16.3943   -6.0111 H         1 UNK         0.0000 
    109 H109       25.2738   14.7294   -5.5679 H         1 UNK         0.0000 
    110 H110       25.3583   15.3226   -3.9230 H         1 UNK         0.0000 
    111 H111       25.7557   17.6612   -4.8403 H         1 UNK         0.0000 
    112 H112       25.7629   16.9927   -6.4520 H         1 UNK         0.0000 
    113 H113       27.7754   15.5884   -5.8280 H         1 UNK         0.0000 
    114 H114       27.7629   16.3208   -4.2382 H         1 UNK         0.0000 
    115 H115       27.9883   18.6001   -5.3269 H         1 UNK         0.0000 
    116 H116       28.0679   17.8218   -6.8873 H         1 UNK         0.0000 
    117 H117       30.0853   17.4641   -4.6185 H         1 UNK         0.0000 
    118 H118       30.1712   16.6272   -6.1526 H         1 UNK         0.0000 
    119 Fe119      14.4770    6.1573   -1.6474 Fe        1 UNK         0.0000 
    120 H120       30.1986   19.6744   -5.8447 H         1 UNK         0.0000 
    121 H121       30.3254   18.8123   -7.3574 H         1 UNK         0.0000 
    122 C122       32.0956   18.6890   -6.1272 C.3       1 UNK         0.0000 
    123 H123       32.3419   18.6616   -5.0642 H         1 UNK         0.0000 
    124 C124       32.8034   19.8826   -6.7895 C.3       1 UNK         0.0000 
    125 H125       32.4726   17.7589   -6.5561 H         1 UNK         0.0000 
    126 H126       32.4206   20.8175   -6.3750 H         1 UNK         0.0000 
    127 H127       32.5714   19.9027   -7.8562 H         1 UNK         0.0000 
    128 C128       34.3247   19.8436   -6.6096 C.3       1 UNK         0.0000 
    129 H129       34.5992   19.8751   -5.5541 H         1 UNK         0.0000 
    130 H130       34.7926   20.6993   -7.0997 H         1 UNK         0.0000 
    131 H131       34.7524   18.9383   -7.0432 H         1 UNK         0.0000 
@<TRIPOS>BOND
     1    1    2 2    
     2    1  119 nc   
     3    2    3 1    
     4    2    4 am   BACKBONE|DICT|INTERRES
     5    3   64 1    
     6    3   65 1    
     7    3   66 1    
     8    4    5 1    
     9    4    6 1    
    10    5  119 nc   
    11    6    7 1    
    12    6   67 1    
    13    6   68 1    
    14    7    8 1    
    15    7   69 1    
    16    7   70 1    
    17    8    9 1    
    18    8   71 1    
    19    8   72 1    
    20    9   10 1    
    21    9   11 1    
    22    9   14 1    
    23   11   12 1    
    24   11   13 2    
    25   14   15 am   BACKBONE|DICT|INTERRES
    26   14   73 1    
    27   15   16 2    
    28   15   17 1    
    29   17   19 1    
    30   17   21 1    
    31   17   18 1    
    32   19   20 1    
    33   19   74 1    
    34   19   75 1    
    35   20   76 1    
    36   21   22 am   BACKBONE|DICT|INTERRES
    37   21   77 1    
    38   22   23 2    
    39   22   24 1    
    40   24   25 1    
    41   24   26 1    
    42   24   34 1    
    43   26   27 1    
    44   26   78 1    
    45   26   79 1    
    46   27   28 1    
    47   27   80 1    
    48   27   81 1    
    49   28   29 1    
    50   28   82 1    
    51   28   83 1    
    52   29   30 1    
    53   29   31 am   BACKBONE|DICT|INTERRES
    54   30  119 nc   
    55   31   32 2    
    56   31   33 1    
    57   32  119 nc   
    58   33   84 1    
    59   33   85 1    
    60   33   86 1    
    61   34   35 am   BACKBONE|DICT|INTERRES
    62   34   87 1    
    63   35   36 2    
    64   35   37 1    
    65   37   39 1    
    66   37   47 1    
    67   37   38 1    
    68   39   40 1    
    69   39   88 1    
    70   39   89 1    
    71   40   41 1    
    72   40   90 1    
    73   40   91 1    
    74   41   42 1    
    75   41   92 1    
    76   41   93 1    
    77   42   43 1    
    78   42   44 am   BACKBONE|DICT|INTERRES
    79   43  119 nc   
    80   44   45 2    
    81   44   46 1    
    82   45  119 nc   
    83   46   94 1    
    84   46   95 1    
    85   46   96 1    
    86   47   48 am   BACKBONE|DICT|INTERRES
    87   47   97 1    
    88   48   49 2    
    89   48   50 1    
    90   50   98 1    
    91   50   99 1    
    92   50   51 1    
    93   51   53 1    
    94   51   54 1    
    95   51   52 1    
    96   53  100 1    
    97   54   55 1    
    98   54  101 1    
    99   54  102 1    
   100   55   56 1    
   101   55  103 1    
   102   55  104 1    
   103   56   57 1    
   104   56  105 1    
   105   56  106 1    
   106   57   58 1    
   107   57  107 1    
   108   57  108 1    
   109   58   59 1    
   110   58  109 1    
   111   58  110 1    
   112   59   60 1    
   113   59  111 1    
   114   59  112 1    
   115   60   61 1    
   116   60  113 1    
   117   60  114 1    
   118   61   62 1    
   119   61  115 1    
   120   61  116 1    
   121   62   63 1    
   122   62  117 1    
   123   62  118 1    
   124   63  120 1    
   125   63  121 1    
   126   63  122 1    
   127  122  123 1    
   128  122  124 1    
   129  122  125 1    
   130  124  126 1    
   131  124  127 1    
   132  124  128 1    
   133  128  129 1    
   134  128  130 1    
   135  128  131 1    
@<TRIPOS>SUBSTRUCTURE
     1 UNK         1 GROUP             0       ****    0 ROOT    
@<TRIPOS>MOLECULE
045_c1
140   144    1
SMALL
USER_CHARGES


@<TRIPOS>ATOM
      1 O1         13.9846    5.1386   -3.1614 O.co2     1 UNK         0.0000 
      2 C2         13.1903    5.8689   -3.7816 C.2       1 UNK         0.0000 
      3 C3         12.3232    5.2724   -4.8879 C.3       1 UNK         0.0000 
      4 N4         13.1058    7.1693   -3.3991 N.am      1 UNK         0.0000 
      5 O5         13.9071    7.7129   -2.4725 O.co2     1 UNK         0.0000 
      6 C6         12.0524    8.0913   -3.8938 C.3       1 UNK         0.0000 
      7 C7         11.0312    8.5495   -2.8139 C.3       1 UNK         0.0000 
      8 C8         11.5366    9.5518   -1.7323 C.3       1 UNK         0.0000 
      9 C9         12.0430   10.9331   -2.2785 C.3       1 UNK         0.0000 
     10 H10        12.7581   10.7451   -3.0909 H         1 UNK         0.0000 
     11 C11        10.8434   11.7478   -2.9058 C.2       1 UNK         0.0000 
     12 O12        10.0371   12.2239   -2.0681 O.co2     1 UNK         0.0000 
     13 O13        10.7517   11.6464   -4.1505 O.co2     1 UNK         0.0000 
     14 N14        12.7635   11.6776   -1.2126 N.am      1 UNK         0.0000 
     15 C15        13.5115   12.7885   -1.3838 C.2       1 UNK         0.0000 
     16 O16        13.7604   13.2968   -2.4756 O.2       1 UNK         0.0000 
     17 C17        14.1724   13.3694   -0.1132 C.3       1 UNK         0.0000 
     18 H18        13.4034   13.3847    0.6557 H         1 UNK         0.0000 
     19 C19        14.7337   14.8123   -0.2706 C.3       1 UNK         0.0000 
     20 O20        13.7655   15.8348   -0.2866 O.3       1 UNK         0.0000 
     21 N21        15.2426   12.4780    0.3578 N.am      1 UNK         0.0000 
     22 C22        16.3757   12.1437   -0.2783 C.2       1 UNK         0.0000 
     23 O23        16.7635   12.6523   -1.3278 O.2       1 UNK         0.0000 
     24 C24        17.2455   11.0547    0.3947 C.3       1 UNK         0.0000 
     25 H25        17.5515   11.4176    1.3814 H         1 UNK         0.0000 
     26 C26        16.4844    9.7094    0.5047 C.3       1 UNK         0.0000 
     27 C27        15.2427    9.5806    1.4277 C.3       1 UNK         0.0000 
     28 C28        14.9312    8.1069    1.8532 C.3       1 UNK         0.0000 
     29 N29        14.6844    7.1317    0.7441 N.am      1 UNK         0.0000 
     30 O30        15.7210    6.9974   -0.0981 O.co2     1 UNK         0.0000 
     31 C31        13.5145    6.4657    0.5351 C.2       1 UNK         0.0000 
     32 O32        13.4394    5.7700   -0.4985 O.co2     1 UNK         0.0000 
     33 C33        12.3163    6.4819    1.4930 C.3       1 UNK         0.0000 
     34 N34        18.4368   10.8317   -0.4298 N.am      1 UNK         0.0000 
     35 C35        19.4895   10.0938   -0.0546 C.2       1 UNK         0.0000 
     36 O36        19.6950    9.7451    1.1008 O.2       1 UNK         0.0000 
     37 C37        20.4738    9.6067   -1.1426 C.3       1 UNK         0.0000 
     38 H38        20.3752   10.2925   -1.9866 H         1 UNK         0.0000 
     39 C39        20.2206    8.1490   -1.6124 C.3       1 UNK         0.0000 
     40 C40        18.7911    7.7021   -1.9203 C.3       1 UNK         0.0000 
     41 C41        18.7779    6.2180   -2.3852 C.3       1 UNK         0.0000 
     42 N42        17.4411    5.5999   -2.3230 N.am      1 UNK         0.0000 
     43 O43        16.5279    6.3114   -2.9831 O.co2     1 UNK         0.0000 
     44 C44        17.0974    4.5809   -1.4818 C.2       1 UNK         0.0000 
     45 O45        15.8817    4.4450   -1.2445 O.co2     1 UNK         0.0000 
     46 C46        18.1084    3.6566   -0.8085 C.3       1 UNK         0.0000 
     47 N47        21.8174    9.6098   -0.5878 N.am      1 UNK         0.0000 
     48 C48        22.9554    9.6679   -1.2974 C.2       1 UNK         0.0000 
     49 O49        24.0184    9.2939   -0.8303 O.2       1 UNK         0.0000 
     50 C50        22.9151   10.3282   -2.6824 C.3       1 UNK         0.0000 
     51 H51        12.5817    4.2315   -5.0764 H         1 UNK         0.0000 
     52 H52        11.2698    5.3187   -4.6225 H         1 UNK         0.0000 
     53 H53        12.4815    5.8205   -5.8128 H         1 UNK         0.0000 
     54 H54        12.5509    8.9548   -4.3331 H         1 UNK         0.0000 
     55 H55        11.4890    7.6878   -4.7398 H         1 UNK         0.0000 
     56 H56        10.5785    7.6850   -2.3278 H         1 UNK         0.0000 
     57 H57        10.2074    9.0277   -3.3339 H         1 UNK         0.0000 
     58 H58        12.3071    9.0885   -1.1048 H         1 UNK         0.0000 
     59 H59        10.7059    9.7515   -1.0366 H         1 UNK         0.0000 
     60 H60        12.5788   11.3380   -0.2817 H         1 UNK         0.0000 
     61 H61        15.3126   14.8717   -1.1886 H         1 UNK         0.0000 
     62 H62        15.4233   15.0416    0.5399 H         1 UNK         0.0000 
     63 H63        13.4722   15.9345   -1.2038 H         1 UNK         0.0000 
     64 H64        15.0372   11.9892    1.2055 H         1 UNK         0.0000 
     65 H65        17.2010    8.9548    0.8428 H         1 UNK         0.0000 
     66 H66        16.2048    9.4294   -0.5211 H         1 UNK         0.0000 
     67 H67        14.3656   10.0240    0.9500 H         1 UNK         0.0000 
     68 H68        15.4219   10.1653    2.3274 H         1 UNK         0.0000 
     69 H69        15.7873    7.7237    2.4094 H         1 UNK         0.0000 
     70 H70        14.1503    8.1472    2.6176 H         1 UNK         0.0000 
     71 H71        12.4319    7.0686    2.3919 H         1 UNK         0.0000 
     72 H72        12.0797    5.4715    1.8101 H         1 UNK         0.0000 
     73 H73        11.4460    6.8623    0.9704 H         1 UNK         0.0000 
     74 H74        18.3065   11.1737   -1.3688 H         1 UNK         0.0000 
     75 H75        20.8282    7.9521   -2.5006 H         1 UNK         0.0000 
     76 H76        20.6147    7.4777   -0.8415 H         1 UNK         0.0000 
     77 H77        18.3622    8.3472   -2.6894 H         1 UNK         0.0000 
     78 H78        18.1646    7.8160   -1.0336 H         1 UNK         0.0000 
     79 H79        19.1754    6.1415   -3.4006 H         1 UNK         0.0000 
     80 H80        19.5053    5.6764   -1.7775 H         1 UNK         0.0000 
     81 H81        17.7661    2.6305   -0.9192 H         1 UNK         0.0000 
     82 H82        18.1674    3.8787    0.2562 H         1 UNK         0.0000 
     83 H83        19.1055    3.7044   -1.2331 H         1 UNK         0.0000 
     84 H84        21.8529    9.3578    0.3950 H         1 UNK         0.0000 
     85 Fe85       14.9434    6.1401   -1.7545 Fe        1 UNK         0.0000 
     86 H86        22.1219    9.8911   -3.2868 H         1 UNK         0.0000 
     87 H87        23.8481   10.1268   -3.2153 H         1 UNK         0.0000 
     88 C88        22.7099   11.8409   -2.4767 C.3       1 UNK         0.0000 
     89 H89        21.9640   12.0294   -1.6956 H         1 UNK         0.0000 
     90 C90        22.2497   12.6135   -3.7054 C.3       1 UNK         0.0000 
     91 H91        23.6363   12.2816   -2.1021 H         1 UNK         0.0000 
     92 H92        21.2843   12.2406   -4.0631 H         1 UNK         0.0000 
     93 H93        22.9539   12.4847   -4.5310 H         1 UNK         0.0000 
     94 C94        22.1335   14.0848   -3.2995 C.3       1 UNK         0.0000 
     95 H95        21.5032   14.1715   -2.4110 H         1 UNK         0.0000 
     96 C96        21.5259   14.9172   -4.4037 C.3       1 UNK         0.0000 
     97 H97        23.1122   14.4834   -3.0262 H         1 UNK         0.0000 
     98 H98        20.5676   14.4690   -4.6791 H         1 UNK         0.0000 
     99 H99        22.1531   14.8667   -5.2959 H         1 UNK         0.0000 
    100 C100       21.3097   16.3770   -3.9889 C.3       1 UNK         0.0000 
    101 H101       20.7552   16.4412   -3.0495 H         1 UNK         0.0000 
    102 C102       20.5319   17.0209   -5.1234 C.3       1 UNK         0.0000 
    103 H103       22.2650   16.8834   -3.8285 H         1 UNK         0.0000 
    104 H104       19.6622   16.3986   -5.3407 H         1 UNK         0.0000 
    105 H105       21.1779   17.0276   -5.9992 H         1 UNK         0.0000 
    106 C106       20.0205   18.4265   -4.9284 C.2       1 UNK         0.0000 
    107 C107       19.1470   18.9755   -5.7921 C.2       1 UNK         0.0000 
    108 H108       20.3875   18.9787   -4.0717 H         1 UNK         0.0000 
    109 C109       18.6017   18.2584   -7.0313 C.3       1 UNK         0.0000 
    110 H110       18.8084   19.9897   -5.6353 H         1 UNK         0.0000 
    111 H111       18.2927   17.2501   -6.7585 H         1 UNK         0.0000 
    112 C112       19.6180   18.1618   -8.1897 C.3       1 UNK         0.0000 
    113 H113       17.6813   18.7438   -7.3568 H         1 UNK         0.0000 
    114 H114       20.4932   17.5806   -7.9031 H         1 UNK         0.0000 
    115 C115       20.0549   19.5621   -8.6095 C.3       1 UNK         0.0000 
    116 H116       19.1858   17.6227   -9.0322 H         1 UNK         0.0000 
    117 H117       20.4634   20.0964   -7.7495 H         1 UNK         0.0000 
    118 H118       19.1585   20.1074   -8.9108 H         1 UNK         0.0000 
    119 C119       21.0979   19.6223   -9.7226 C.3       1 UNK         0.0000 
    120 H120       22.0590   19.2274   -9.3824 H         1 UNK         0.0000 
    121 C121       21.2289   21.0938  -10.1141 C.3       1 UNK         0.0000 
    122 H122       20.7925   19.0171  -10.5801 H         1 UNK         0.0000 
    123 H123       21.5711   21.6746   -9.2533 H         1 UNK         0.0000 
    124 H124       20.2364   21.4826  -10.3565 H         1 UNK         0.0000 
    125 C125       22.1498   21.3535  -11.2979 C.3       1 UNK         0.0000 
    126 H126       23.1756   21.0766  -11.0453 H         1 UNK         0.0000 
    127 C127       22.0650   22.8355  -11.6766 C.3       1 UNK         0.0000 
    128 H128       21.8545   20.7286  -12.1433 H         1 UNK         0.0000 
    129 H129       22.3644   23.4479  -10.8222 H         1 UNK         0.0000 
    130 H130       21.0237   23.0987  -11.8822 H         1 UNK         0.0000 
    131 C131       22.9251   23.1760  -12.8916 C.3       1 UNK         0.0000 
    132 H132       23.9654   22.9219  -12.6790 H         1 UNK         0.0000 
    133 C133       22.8075   24.6579  -13.2673 C.3       1 UNK         0.0000 
    134 H134       22.6206   22.5516  -13.7342 H         1 UNK         0.0000 
    135 H135       23.0960   25.2734  -12.4133 H         1 UNK         0.0000 
    136 H136       21.7619   24.8997  -13.4680 H         1 UNK         0.0000 
    137 C137       23.6754   24.9974  -14.4874 C.3       1 UNK         0.0000 
    138 H138       24.7260   24.7792  -14.2916 H         1 UNK         0.0000 
    139 H139       23.6011   26.0493  -14.7590 H         1 UNK         0.0000 
    140 H140       23.3749   24.4091  -15.3554 H         1 UNK         0.0000 
@<TRIPOS>BOND
     1    1    2 2    
     2    1   85 nc   
     3    2    3 1    
     4    2    4 am   BACKBONE|DICT|INTERRES
     5    3   51 1    
     6    3   52 1    
     7    3   53 1    
     8    4    5 1    
     9    4    6 1    
    10    5   85 nc   
    11    6    7 1    
    12    6   54 1    
    13    6   55 1    
    14    7    8 1    
    15    7   56 1    
    16    7   57 1    
    17    8    9 1    
    18    8   58 1    
    19    8   59 1    
    20    9   10 1    
    21    9   11 1    
    22    9   14 1    
    23   11   12 1    
    24   11   13 2    
    25   14   15 am   BACKBONE|DICT|INTERRES
    26   14   60 1    
    27   15   16 2    
    28   15   17 1    
    29   17   19 1    
    30   17   21 1    
    31   17   18 1    
    32   19   20 1    
    33   19   61 1    
    34   19   62 1    
    35   20   63 1    
    36   21   22 am   BACKBONE|DICT|INTERRES
    37   21   64 1    
    38   22   23 2    
    39   22   24 1    
    40   24   25 1    
    41   24   26 1    
    42   24   34 1    
    43   26   27 1    
    44   26   65 1    
    45   26   66 1    
    46   27   28 1    
    47   27   67 1    
    48   27   68 1    
    49   28   29 1    
    50   28   69 1    
    51   28   70 1    
    52   29   30 1    
    53   29   31 am   BACKBONE|DICT|INTERRES
    54   30   85 nc   
    55   31   32 2    
    56   31   33 1    
    57   32   85 nc   
    58   33   71 1    
    59   33   72 1    
    60   33   73 1    
    61   34   35 am   BACKBONE|DICT|INTERRES
    62   34   74 1    
    63   35   36 2    
    64   35   37 1    
    65   37   39 1    
    66   37   47 1    
    67   37   38 1    
    68   39   40 1    
    69   39   75 1    
    70   39   76 1    
    71   40   41 1    
    72   40   77 1    
    73   40   78 1    
    74   41   42 1    
    75   41   79 1    
    76   41   80 1    
    77   42   43 1    
    78   42   44 am   BACKBONE|DICT|INTERRES
    79   43   85 nc   
    80   44   45 2    
    81   44   46 1    
    82   45   85 nc   
    83   46   81 1    
    84   46   82 1    
    85   46   83 1    
    86   47   48 am   BACKBONE|DICT|INTERRES
    87   47   84 1    
    88   48   49 2    
    89   48   50 1    
    90   50   86 1    
    91   50   87 1    
    92   50   88 1    
    93   88   89 1    
    94   88   90 1    
    95   88   91 1    
    96   90   92 1    
    97   90   93 1    
    98   90   94 1    
    99   94   95 1    
   100   94   96 1    
   101   94   97 1    
   102   96   98 1    
   103   96   99 1    
   104   96  100 1    
   105  100  101 1    
   106  100  102 1    
   107  100  103 1    
   108  102  104 1    
   109  102  105 1    
   110  102  106 1    
   111  106  107 2    
   112  106  108 1    
   113  107  109 1    
   114  107  110 1    
   115  109  111 1    
   116  109  112 1    
   117  109  113 1    
   118  112  114 1    
   119  112  115 1    
   120  112  116 1    
   121  115  117 1    
   122  115  118 1    
   123  115  119 1    
   124  119  120 1    
   125  119  121 1    
   126  119  122 1    
   127  121  123 1    
   128  121  124 1    
   129  121  125 1    
   130  125  126 1    
   131  125  127 1    
   132  125  128 1    
   133  127  129 1    
   134  127  130 1    
   135  127  131 1    
   136  131  132 1    
   137  131  133 1    
   138  131  134 1    
   139  133  135 1    
   140  133  136 1    
   141  133  137 1    
   142  137  138 1    
   143  137  139 1    
   144  137  140 1    
@<TRIPOS>SUBSTRUCTURE
     1 UNK         1 GROUP             0       ****    0 ROOT    
@<TRIPOS>MOLECULE
046_c1
130   134    1
SMALL
USER_CHARGES


@<TRIPOS>ATOM
      1 O1         14.0268    5.1372   -3.1559 O.co2     1 UNK         0.0000 
      2 C2         13.2192    5.8699   -3.7508 C.2       1 UNK         0.0000 
      3 C3         12.3621    5.2955   -4.8738 C.3       1 UNK         0.0000 
      4 N4         13.1235    7.1620   -3.3541 N.am      1 UNK         0.0000 
      5 O5         13.8867    7.6923   -2.3935 O.co2     1 UNK         0.0000 
      6 C6         12.1059    8.1016   -3.8740 C.3       1 UNK         0.0000 
      7 C7         11.0668    8.5631   -2.8223 C.3       1 UNK         0.0000 
      8 C8         11.5558    9.5735   -1.7473 C.3       1 UNK         0.0000 
      9 C9         12.0182   10.9637   -2.2786 C.3       1 UNK         0.0000 
     10 H10        12.7291   10.8178   -3.0992 H         1 UNK         0.0000 
     11 C11        10.7858   11.7482   -2.8702 C.2       1 UNK         0.0000 
     12 O12        10.0185   12.2732   -2.0295 O.co2     1 UNK         0.0000 
     13 O13        10.6051   11.5796   -4.0937 O.co2     1 UNK         0.0000 
     14 N14        12.7244   11.7115   -1.2133 N.am      1 UNK         0.0000 
     15 C15        13.4334   12.8401   -1.3919 C.2       1 UNK         0.0000 
     16 O16        13.5791   13.4066   -2.4700 O.2       1 UNK         0.0000 
     17 C17        14.1405   13.4032   -0.1466 C.3       1 UNK         0.0000 
     18 H18        13.4006   13.4502    0.6483 H         1 UNK         0.0000 
     19 C19        14.6920   14.8356   -0.3039 C.3       1 UNK         0.0000 
     20 O20        13.6277   15.7706   -0.2861 O.3       1 UNK         0.0000 
     21 N21        15.1749   12.4933    0.3333 N.am      1 UNK         0.0000 
     22 C22        16.3079   12.1761   -0.3132 C.2       1 UNK         0.0000 
     23 O23        16.6808   12.7280   -1.3449 O.2       1 UNK         0.0000 
     24 C24        17.1894   11.0892    0.3220 C.3       1 UNK         0.0000 
     25 H25        17.5108   11.4538    1.3017 H         1 UNK         0.0000 
     26 C26        16.4565    9.7331    0.4490 C.3       1 UNK         0.0000 
     27 C27        15.2515    9.5793    1.3980 C.3       1 UNK         0.0000 
     28 C28        14.9887    8.1136    1.8189 C.3       1 UNK         0.0000 
     29 N29        14.7272    7.1532    0.7156 N.am      1 UNK         0.0000 
     30 O30        15.7741    7.0019   -0.1020 O.co2     1 UNK         0.0000 
     31 C31        13.5788    6.4470    0.5404 C.2       1 UNK         0.0000 
     32 O32        13.5015    5.7081   -0.4585 O.co2     1 UNK         0.0000 
     33 C33        12.3870    6.5139    1.4904 C.3       1 UNK         0.0000 
     34 N34        18.3858   10.8796   -0.5050 N.am      1 UNK         0.0000 
     35 C35        19.4396   10.1634   -0.1004 C.2       1 UNK         0.0000 
     36 O36        19.6215    9.8478    1.0753 O.2       1 UNK         0.0000 
     37 C37        20.4403    9.6711   -1.1576 C.3       1 UNK         0.0000 
     38 H38        20.3434   10.3622   -1.9981 H         1 UNK         0.0000 
     39 C39        20.2023    8.2314   -1.6709 C.3       1 UNK         0.0000 
     40 C40        18.7853    7.7408   -1.9483 C.3       1 UNK         0.0000 
     41 C41        18.7882    6.2544   -2.3907 C.3       1 UNK         0.0000 
     42 N42        17.4586    5.6374   -2.2996 N.am      1 UNK         0.0000 
     43 O43        16.5380    6.3439   -2.9584 O.co2     1 UNK         0.0000 
     44 C44        17.1454    4.6073   -1.4689 C.2       1 UNK         0.0000 
     45 O45        15.9396    4.4512   -1.2206 O.co2     1 UNK         0.0000 
     46 C46        18.1863    3.7013   -0.8157 C.3       1 UNK         0.0000 
     47 N47        21.7801    9.6735   -0.5778 N.am      1 UNK         0.0000 
     48 C48        22.9287    9.6822   -1.2756 C.2       1 UNK         0.0000 
     49 O49        23.9838    9.3413   -0.7642 O.2       1 UNK         0.0000 
     50 C50        22.9288   10.2503   -2.6897 C.3       1 UNK         0.0000 
     51 H51        12.6240    4.2559   -5.0545 H         1 UNK         0.0000 
     52 H52        11.3043    5.3444   -4.6186 H         1 UNK         0.0000 
     53 H53        12.5233    5.8475   -5.7998 H         1 UNK         0.0000 
     54 H54        12.6382    8.9532   -4.2997 H         1 UNK         0.0000 
     55 H55        11.5463    7.6983   -4.7143 H         1 UNK         0.0000 
     56 H56        10.6862    7.6724   -2.3292 H         1 UNK         0.0000 
     57 H57        10.2197    8.9993   -3.3513 H         1 UNK         0.0000 
     58 H58        12.3554    9.1303   -1.1591 H         1 UNK         0.0000 
     59 H59        10.7388    9.7172   -1.0303 H         1 UNK         0.0000 
     60 H60        12.5620   11.3668   -0.2814 H         1 UNK         0.0000 
     61 H61        15.3148   14.9495   -1.1950 H         1 UNK         0.0000 
     62 H62        15.3267   15.0843    0.5417 H         1 UNK         0.0000 
     63 H63        13.2401   15.8046   -1.1671 H         1 UNK         0.0000 
     64 H64        14.9597   11.9983    1.1811 H         1 UNK         0.0000 
     65 H65        17.1958    8.9968    0.7788 H         1 UNK         0.0000 
     66 H66        16.1332    9.4437   -0.5564 H         1 UNK         0.0000 
     67 H67        14.3527    9.9711    0.9326 H         1 UNK         0.0000 
     68 H68        15.4191   10.1568    2.3057 H         1 UNK         0.0000 
     69 H69        15.8782    7.7270    2.3282 H         1 UNK         0.0000 
     70 H70        14.2221    8.1484    2.5853 H         1 UNK         0.0000 
     71 H71        12.5086    7.1123    2.3879 H         1 UNK         0.0000 
     72 H72        12.1708    5.5023    1.8217 H         1 UNK         0.0000 
     73 H73        11.5160    6.8981    0.9618 H         1 UNK         0.0000 
     74 H74        18.3002   11.2154   -1.4591 H         1 UNK         0.0000 
     75 H75        20.7963    8.1038   -2.5787 H         1 UNK         0.0000 
     76 H76        20.6326    7.5491   -0.9347 H         1 UNK         0.0000 
     77 H77        18.2968    8.3500   -2.7111 H         1 UNK         0.0000 
     78 H78        18.1982    7.8281   -1.0378 H         1 UNK         0.0000 
     79 H79        19.1635    6.1531   -3.4134 H         1 UNK         0.0000 
     80 H80        19.5199    5.7361   -1.7742 H         1 UNK         0.0000 
     81 H81        17.8510    2.6665   -0.8772 H         1 UNK         0.0000 
     82 H82        18.2895    3.9649    0.2373 H         1 UNK         0.0000 
     83 H83        19.1648    3.7424   -1.2924 H         1 UNK         0.0000 
     84 H84        21.8146    9.4579    0.4107 H         1 UNK         0.0000 
     85 Fe85       14.9677    6.1233   -1.7286 Fe        1 UNK         0.0000 
     86 H86        22.1804    9.7599   -3.3115 H         1 UNK         0.0000 
     87 H87        23.8839   10.0626   -3.1852 H         1 UNK         0.0000 
     88 C88        22.6834   11.7584   -2.5928 C.3       1 UNK         0.0000 
     89 H89        22.0974   12.0233   -1.7057 H         1 UNK         0.0000 
     90 C90        21.9292   12.3336   -3.7745 C.3       1 UNK         0.0000 
     91 H91        23.6405   12.2646   -2.4596 H         1 UNK         0.0000 
     92 H92        20.9584   11.8492   -3.9011 H         1 UNK         0.0000 
     93 H93        22.4907   12.1880   -4.6992 H         1 UNK         0.0000 
     94 C94        21.7388   13.8068   -3.4824 C.3       1 UNK         0.0000 
     95 H95        21.1042   13.9510   -2.6043 H         1 UNK         0.0000 
     96 C96        21.1406   14.5304   -4.6549 C.3       1 UNK         0.0000 
     97 H97        22.7052   14.2539   -3.2376 H         1 UNK         0.0000 
     98 H98        20.1151   14.2012   -4.8365 H         1 UNK         0.0000 
     99 H99        21.7129   14.3183   -5.5602 H         1 UNK         0.0000 
    100 C100       21.1865   16.0066   -4.3464 C.3       1 UNK         0.0000 
    101 H101       20.5711   16.2396   -3.4747 H         1 UNK         0.0000 
    102 C102       20.7084   16.7687   -5.5480 C.3       1 UNK         0.0000 
    103 H103       22.2077   16.3134   -4.1047 H         1 UNK         0.0000 
    104 H104       19.6769   16.4936   -5.7763 H         1 UNK         0.0000 
    105 H105       21.3122   16.5108   -6.4208 H         1 UNK         0.0000 
    106 C106       20.8146   18.2454   -5.2665 C.3       1 UNK         0.0000 
    107 H107       20.2177   18.5076   -4.3903 H         1 UNK         0.0000 
    108 C108       20.3235   18.9803   -6.4858 C.3       1 UNK         0.0000 
    109 H109       21.8478   18.5207   -5.0435 H         1 UNK         0.0000 
    110 H110       19.3031   18.6669   -6.7183 H         1 UNK         0.0000 
    111 H111       20.9391   18.7185   -7.3493 H         1 UNK         0.0000 
    112 C112       20.3674   20.4667   -6.2379 C.3       1 UNK         0.0000 
    113 H113       19.7601   20.7152   -5.3650 H         1 UNK         0.0000 
    114 C114       19.8457   21.1757   -7.4645 C.3       1 UNK         0.0000 
    115 H115       21.3913   20.7777   -6.0198 H         1 UNK         0.0000 
    116 H116       18.8290   20.8400   -7.6800 H         1 UNK         0.0000 
    117 H117       20.4533   20.9048   -8.3307 H         1 UNK         0.0000 
    118 C118       19.8678   22.6747   -7.2557 C.3       1 UNK         0.0000 
    119 H119       19.2560   22.9392   -6.3921 H         1 UNK         0.0000 
    120 C120       19.3511   23.3561   -8.5090 C.3       1 UNK         0.0000 
    121 H121       20.8842   23.0019   -7.0325 H         1 UNK         0.0000 
    122 H122       18.3391   23.0047   -8.7207 H         1 UNK         0.0000 
    123 H123       19.9680   23.0552   -9.3585 H         1 UNK         0.0000 
    124 C124       19.3593   24.8684   -8.3640 C.3       1 UNK         0.0000 
    125 H125       18.7098   25.1696   -7.5402 H         1 UNK         0.0000 
    126 C126       18.8829   25.5218   -9.6463 C.3       1 UNK         0.0000 
    127 H127       20.3665   25.2205   -8.1336 H         1 UNK         0.0000 
    128 H128       17.8676   25.2027   -9.8902 H         1 UNK         0.0000 
    129 H129       19.5388   25.2605  -10.4791 H         1 UNK         0.0000 
    130 H130       18.8969   26.5993   -9.5021 H         1 UNK         0.0000 
@<TRIPOS>BOND
     1    1    2 2    
     2    1   85 nc   
     3    2    3 1    
     4    2    4 am   BACKBONE|DICT|INTERRES
     5    3   51 1    
     6    3   52 1    
     7    3   53 1    
     8    4    5 1    
     9    4    6 1    
    10    5   85 nc   
    11    6    7 1    
    12    6   54 1    
    13    6   55 1    
    14    7    8 1    
    15    7   56 1    
    16    7   57 1    
    17    8    9 1    
    18    8   58 1    
    19    8   59 1    
    20    9   10 1    
    21    9   11 1    
    22    9   14 1    
    23   11   12 1    
    24   11   13 2    
    25   14   15 am   BACKBONE|DICT|INTERRES
    26   14   60 1    
    27   15   16 2    
    28   15   17 1    
    29   17   19 1    
    30   17   21 1    
    31   17   18 1    
    32   19   20 1    
    33   19   61 1    
    34   19   62 1    
    35   20   63 1    
    36   21   22 am   BACKBONE|DICT|INTERRES
    37   21   64 1    
    38   22   23 2    
    39   22   24 1    
    40   24   25 1    
    41   24   26 1    
    42   24   34 1    
    43   26   27 1    
    44   26   65 1    
    45   26   66 1    
    46   27   28 1    
    47   27   67 1    
    48   27   68 1    
    49   28   29 1    
    50   28   69 1    
    51   28   70 1    
    52   29   30 1    
    53   29   31 am   BACKBONE|DICT|INTERRES
    54   30   85 nc   
    55   31   32 2    
    56   31   33 1    
    57   32   85 nc   
    58   33   71 1    
    59   33   72 1    
    60   33   73 1    
    61   34   35 am   BACKBONE|DICT|INTERRES
    62   34   74 1    
    63   35   36 2    
    64   35   37 1    
    65   37   39 1    
    66   37   47 1    
    67   37   38 1    
    68   39   40 1    
    69   39   75 1    
    70   39   76 1    
    71   40   41 1    
    72   40   77 1    
    73   40   78 1    
    74   41   42 1    
    75   41   79 1    
    76   41   80 1    
    77   42   43 1    
    78   42   44 am   BACKBONE|DICT|INTERRES
    79   43   85 nc   
    80   44   45 2    
    81   44   46 1    
    82   45   85 nc   
    83   46   81 1    
    84   46   82 1    
    85   46   83 1    
    86   47   48 am   BACKBONE|DICT|INTERRES
    87   47   84 1    
    88   48   49 2    
    89   48   50 1    
    90   50   86 1    
    91   50   87 1    
    92   50   88 1    
    93   88   89 1    
    94   88   90 1    
    95   88   91 1    
    96   90   92 1    
    97   90   93 1    
    98   90   94 1    
    99   94   95 1    
   100   94   96 1    
   101   94   97 1    
   102   96   98 1    
   103   96   99 1    
   104   96  100 1    
   105  100  101 1    
   106  100  102 1    
   107  100  103 1    
   108  102  104 1    
   109  102  105 1    
   110  102  106 1    
   111  106  107 1    
   112  106  108 1    
   113  106  109 1    
   114  108  110 1    
   115  108  111 1    
   116  108  112 1    
   117  112  113 1    
   118  112  114 1    
   119  112  115 1    
   120  114  116 1    
   121  114  117 1    
   122  114  118 1    
   123  118  119 1    
   124  118  120 1    
   125  118  121 1    
   126  120  122 1    
   127  120  123 1    
   128  120  124 1    
   129  124  125 1    
   130  124  126 1    
   131  124  127 1    
   132  126  128 1    
   133  126  129 1    
   134  126  130 1    
@<TRIPOS>SUBSTRUCTURE
     1 UNK         1 GROUP             0       ****    0 ROOT    
@<TRIPOS>MOLECULE
047_c1
134   138    1
SMALL
USER_CHARGES


@<TRIPOS>ATOM
      1 O1         13.9960    5.1459   -3.1880 O.co2     1 UNK         0.0000 
      2 C2         13.1764    5.8719   -3.7658 C.2       1 UNK         0.0000 
      3 C3         12.3119    5.2960   -4.8836 C.3       1 UNK         0.0000 
      4 N4         13.0753    7.1644   -3.3544 N.am      1 UNK         0.0000 
      5 O5         13.8510    7.6877   -2.3965 O.co2     1 UNK         0.0000 
      6 C6         12.0551    8.1000   -3.8715 C.3       1 UNK         0.0000 
      7 C7         11.0309    8.5815   -2.8114 C.3       1 UNK         0.0000 
      8 C8         11.5416    9.5878   -1.7399 C.3       1 UNK         0.0000 
      9 C9         12.0494   10.9575   -2.2790 C.3       1 UNK         0.0000 
     10 H10        12.7601   10.7785   -3.0899 H         1 UNK         0.0000 
     11 C11        10.8504   11.7781   -2.8836 C.2       1 UNK         0.0000 
     12 O12        10.0951   12.3204   -2.0388 O.co2     1 UNK         0.0000 
     13 O13        10.6772   11.6232   -4.1117 O.co2     1 UNK         0.0000 
     14 N14        12.7715   11.6928   -1.2160 N.am      1 UNK         0.0000 
     15 C15        13.5301   12.7851   -1.4054 C.2       1 UNK         0.0000 
     16 O16        13.7592   13.3019   -2.4930 O.2       1 UNK         0.0000 
     17 C17        14.2113   13.3620   -0.1453 C.3       1 UNK         0.0000 
     18 H18        13.4566   13.4074    0.6364 H         1 UNK         0.0000 
     19 C19        14.7792   14.7939   -0.3079 C.3       1 UNK         0.0000 
     20 O20        13.7582   15.7761   -0.3123 O.3       1 UNK         0.0000 
     21 N21        15.2446   12.4520    0.3556 N.am      1 UNK         0.0000 
     22 C22        16.3838   12.1239   -0.2671 C.2       1 UNK         0.0000 
     23 O23        16.7883   12.6704   -1.2905 O.2       1 UNK         0.0000 
     24 C24        17.2391   11.0197    0.3863 C.3       1 UNK         0.0000 
     25 H25        17.5516   11.3724    1.3721 H         1 UNK         0.0000 
     26 C26        16.4798    9.6772    0.5034 C.3       1 UNK         0.0000 
     27 C27        15.2396    9.5500    1.4112 C.3       1 UNK         0.0000 
     28 C28        14.9247    8.0901    1.8243 C.3       1 UNK         0.0000 
     29 N29        14.6682    7.1338    0.7202 N.am      1 UNK         0.0000 
     30 O30        15.7208    6.9768   -0.0894 O.co2     1 UNK         0.0000 
     31 C31        13.5132    6.4328    0.5262 C.2       1 UNK         0.0000 
     32 O32        13.4424    5.7040   -0.4789 O.co2     1 UNK         0.0000 
     33 C33        12.3091    6.5029    1.4644 C.3       1 UNK         0.0000 
     34 N34        18.4384   10.8035   -0.4265 N.am      1 UNK         0.0000 
     35 C35        19.4873   10.0677   -0.0335 C.2       1 UNK         0.0000 
     36 O36        19.6660    9.7255    1.1344 O.2       1 UNK         0.0000 
     37 C37        20.4720    9.5898   -1.1104 C.3       1 UNK         0.0000 
     38 H38        20.3568   10.2769   -1.9547 H         1 UNK         0.0000 
     39 C39        20.2224    8.1431   -1.6051 C.3       1 UNK         0.0000 
     40 C40        18.7968    7.6855   -1.9220 C.3       1 UNK         0.0000 
     41 C41        18.7672    6.2024   -2.3713 C.3       1 UNK         0.0000 
     42 N42        17.4256    5.6117   -2.2901 N.am      1 UNK         0.0000 
     43 O43        16.5147    6.3390   -2.9426 O.co2     1 UNK         0.0000 
     44 C44        17.0888    4.5761   -1.4753 C.2       1 UNK         0.0000 
     45 O45        15.8799    4.4350   -1.2315 O.co2     1 UNK         0.0000 
     46 C46        18.1085    3.6476   -0.8133 C.3       1 UNK         0.0000 
     47 N47        21.8213    9.6027   -0.5587 N.am      1 UNK         0.0000 
     48 C48        22.9614    9.6731   -1.2660 C.2       1 UNK         0.0000 
     49 O49        24.0200    9.3072   -0.7816 O.2       1 UNK         0.0000 
     50 C50        22.9386   10.3300   -2.6455 C.3       1 UNK         0.0000 
     51 H51        12.5749    4.2592   -5.0626 H         1 UNK         0.0000 
     52 H52        11.2581    5.3381   -4.6203 H         1 UNK         0.0000 
     53 H53        12.4606    5.8444   -5.8106 H         1 UNK         0.0000 
     54 H54        12.5767    8.9535   -4.3142 H         1 UNK         0.0000 
     55 H55        11.4781    7.6896   -4.7010 H         1 UNK         0.0000 
     56 H56        10.6293    7.6970   -2.3221 H         1 UNK         0.0000 
     57 H57        10.1903    9.0414   -3.3389 H         1 UNK         0.0000 
     58 H58        12.3218    9.1148   -1.1420 H         1 UNK         0.0000 
     59 H59        10.7253    9.7574   -1.0335 H         1 UNK         0.0000 
     60 H60        12.5645   11.3816   -0.2831 H         1 UNK         0.0000 
     61 H61        15.3947   14.8980   -1.2054 H         1 UNK         0.0000 
     62 H62        15.4345   15.0237    0.5302 H         1 UNK         0.0000 
     63 H63        13.3703   15.7889   -1.2032 H         1 UNK         0.0000 
     64 H64        15.0025   11.9532    1.1967 H         1 UNK         0.0000 
     65 H65        17.1981    8.9259    0.8448 H         1 UNK         0.0000 
     66 H66        16.1772    9.3964   -0.5106 H         1 UNK         0.0000 
     67 H67        14.3625    9.9580    0.9132 H         1 UNK         0.0000 
     68 H68        15.3965   10.1282    2.3238 H         1 UNK         0.0000 
     69 H69        15.7907    7.6860    2.3618 H         1 UNK         0.0000 
     70 H70        14.1348    8.1457    2.5618 H         1 UNK         0.0000 
     71 H71        12.4367    7.0840    2.3716 H         1 UNK         0.0000 
     72 H72        12.0761    5.4886    1.7797 H         1 UNK         0.0000 
     73 H73        11.4433    6.9044    0.9385 H         1 UNK         0.0000 
     74 H74        18.3597   11.1585   -1.3740 H         1 UNK         0.0000 
     75 H75        20.8496    7.9795   -2.4840 H         1 UNK         0.0000 
     76 H76        20.6015    7.4687   -0.8321 H         1 UNK         0.0000 
     77 H77        18.3413    8.3109   -2.6928 H         1 UNK         0.0000 
     78 H78        18.1847    7.7839   -1.0247 H         1 UNK         0.0000 
     79 H79        19.1426    6.1080   -3.3952 H         1 UNK         0.0000 
     80 H80        19.4860    5.6610   -1.7583 H         1 UNK         0.0000 
     81 H81        17.7612    2.6181   -0.8784 H         1 UNK         0.0000 
     82 H82        18.2087    3.9052    0.2396 H         1 UNK         0.0000 
     83 H83        19.0919    3.6719   -1.2799 H         1 UNK         0.0000 
     84 H84        21.8687    9.3316    0.4153 H         1 UNK         0.0000 
     85 Fe85       14.9288    6.1192   -1.7364 Fe        1 UNK         0.0000 
     86 H86        22.1577    9.8850   -3.2643 H         1 UNK         0.0000 
     87 H87        23.8806   10.1398   -3.1660 H         1 UNK         0.0000 
     88 C88        22.7579   11.8437   -2.4434 C.3       1 UNK         0.0000 
     89 H89        22.0218   12.0459   -1.6595 H         1 UNK         0.0000 
     90 C90        22.2945   12.6138   -3.6702 C.3       1 UNK         0.0000 
     91 H91        23.7004   12.2609   -2.0822 H         1 UNK         0.0000 
     92 H92        21.3343   12.2146   -4.0049 H         1 UNK         0.0000 
     93 H93        22.9940   12.4957   -4.4998 H         1 UNK         0.0000 
     94 C94        22.1553   14.0948   -3.2907 C.3       1 UNK         0.0000 
     95 H95        21.5197   14.1871   -2.4066 H         1 UNK         0.0000 
     96 C96        21.5363   14.9095   -4.4088 C.3       1 UNK         0.0000 
     97 H97        23.1294   14.5084   -3.0239 H         1 UNK         0.0000 
     98 H98        20.5910   14.4355   -4.6866 H         1 UNK         0.0000 
     99 H99        22.1734   14.8654   -5.2951 H         1 UNK         0.0000 
    100 C100       21.2801   16.3718   -4.0154 C.3       1 UNK         0.0000 
    101 H101       20.6976   16.4307   -3.0938 H         1 UNK         0.0000 
    102 C102       20.5217   17.0157   -5.1630 C.3       1 UNK         0.0000 
    103 H103       22.2214   16.8957   -3.8353 H         1 UNK         0.0000 
    104 H104       19.6627   16.3857   -5.3976 H         1 UNK         0.0000 
    105 H105       21.1808   17.0292   -6.0291 H         1 UNK         0.0000 
    106 C106       20.0036   18.4170   -4.9539 C.2       1 UNK         0.0000 
    107 C107       19.1464   18.9910   -5.8148 C.2       1 UNK         0.0000 
    108 H108       20.3437   18.9635   -4.0842 H         1 UNK         0.0000 
    109 C109       18.6103   18.3165   -7.0741 C.3       1 UNK         0.0000 
    110 H110       18.8057   20.0011   -5.6331 H         1 UNK         0.0000 
    111 H111       18.2955   17.3006   -6.8281 H         1 UNK         0.0000 
    112 C112       19.6221   18.2670   -8.2400 C.3       1 UNK         0.0000 
    113 H113       17.6922   18.8126   -7.3914 H         1 UNK         0.0000 
    114 H114       20.5047   17.6838   -7.9741 H         1 UNK         0.0000 
    115 C115       20.0493   19.6776   -8.6568 C.3       1 UNK         0.0000 
    116 H116       19.1704   17.7443   -9.0869 H         1 UNK         0.0000 
    117 H117       20.4614   20.2037   -7.7925 H         1 UNK         0.0000 
    118 H118       19.1511   20.2246   -8.9489 H         1 UNK         0.0000 
    119 C119       21.0845   19.7475   -9.7869 C.3       1 UNK         0.0000 
    120 H120       22.0388   19.3344   -9.4509 H         1 UNK         0.0000 
    121 C121       21.2535   21.2146  -10.2043 C.3       1 UNK         0.0000 
    122 H122       20.7607   19.1457  -10.6373 H         1 UNK         0.0000 
    123 H123       21.6078   21.7943   -9.3491 H         1 UNK         0.0000 
    124 H124       20.2692   21.6148  -10.4574 H         1 UNK         0.0000 
    125 C125       22.1898   21.4477  -11.3930 C.3       1 UNK         0.0000 
    126 H126       23.2115   21.1622  -11.1327 H         1 UNK         0.0000 
    127 C127       22.1511   22.9240  -11.8149 C.3       1 UNK         0.0000 
    128 H128       21.8879   20.8224  -12.2362 H         1 UNK         0.0000 
    129 H129       22.4669   23.5592  -10.9842 H         1 UNK         0.0000 
    130 H130       21.1251   23.2144  -12.0524 H         1 UNK         0.0000 
    131 C131       23.0286   23.2223  -13.0273 C.3       1 UNK         0.0000 
    132 H132       24.0755   23.0007  -12.8244 H         1 UNK         0.0000 
    133 H133       22.9550   24.2767  -13.2942 H         1 UNK         0.0000 
    134 H134       22.7201   22.6379  -13.8934 H         1 UNK         0.0000 
@<TRIPOS>BOND
     1    1    2 2    
     2    1   85 nc   
     3    2    3 1    
     4    2    4 am   BACKBONE|DICT|INTERRES
     5    3   51 1    
     6    3   52 1    
     7    3   53 1    
     8    4    5 1    
     9    4    6 1    
    10    5   85 nc   
    11    6    7 1    
    12    6   54 1    
    13    6   55 1    
    14    7    8 1    
    15    7   56 1    
    16    7   57 1    
    17    8    9 1    
    18    8   58 1    
    19    8   59 1    
    20    9   10 1    
    21    9   11 1    
    22    9   14 1    
    23   11   12 1    
    24   11   13 2    
    25   14   15 am   BACKBONE|DICT|INTERRES
    26   14   60 1    
    27   15   16 2    
    28   15   17 1    
    29   17   19 1    
    30   17   21 1    
    31   17   18 1    
    32   19   20 1    
    33   19   61 1    
    34   19   62 1    
    35   20   63 1    
    36   21   22 am   BACKBONE|DICT|INTERRES
    37   21   64 1    
    38   22   23 2    
    39   22   24 1    
    40   24   25 1    
    41   24   26 1    
    42   24   34 1    
    43   26   27 1    
    44   26   65 1    
    45   26   66 1    
    46   27   28 1    
    47   27   67 1    
    48   27   68 1    
    49   28   29 1    
    50   28   69 1    
    51   28   70 1    
    52   29   30 1    
    53   29   31 am   BACKBONE|DICT|INTERRES
    54   30   85 nc   
    55   31   32 2    
    56   31   33 1    
    57   32   85 nc   
    58   33   71 1    
    59   33   72 1    
    60   33   73 1    
    61   34   35 am   BACKBONE|DICT|INTERRES
    62   34   74 1    
    63   35   36 2    
    64   35   37 1    
    65   37   39 1    
    66   37   47 1    
    67   37   38 1    
    68   39   40 1    
    69   39   75 1    
    70   39   76 1    
    71   40   41 1    
    72   40   77 1    
    73   40   78 1    
    74   41   42 1    
    75   41   79 1    
    76   41   80 1    
    77   42   43 1    
    78   42   44 am   BACKBONE|DICT|INTERRES
    79   43   85 nc   
    80   44   45 2    
    81   44   46 1    
    82   45   85 nc   
    83   46   81 1    
    84   46   82 1    
    85   46   83 1    
    86   47   48 am   BACKBONE|DICT|INTERRES
    87   47   84 1    
    88   48   49 2    
    89   48   50 1    
    90   50   86 1    
    91   50   87 1    
    92   50   88 1    
    93   88   89 1    
    94   88   90 1    
    95   88   91 1    
    96   90   92 1    
    97   90   93 1    
    98   90   94 1    
    99   94   95 1    
   100   94   96 1    
   101   94   97 1    
   102   96   98 1    
   103   96   99 1    
   104   96  100 1    
   105  100  101 1    
   106  100  102 1    
   107  100  103 1    
   108  102  104 1    
   109  102  105 1    
   110  102  106 1    
   111  106  107 2    
   112  106  108 1    
   113  107  109 1    
   114  107  110 1    
   115  109  111 1    
   116  109  112 1    
   117  109  113 1    
   118  112  114 1    
   119  112  115 1    
   120  112  116 1    
   121  115  117 1    
   122  115  118 1    
   123  115  119 1    
   124  119  120 1    
   125  119  121 1    
   126  119  122 1    
   127  121  123 1    
   128  121  124 1    
   129  121  125 1    
   130  125  126 1    
   131  125  127 1    
   132  125  128 1    
   133  127  129 1    
   134  127  130 1    
   135  127  131 1    
   136  131  132 1    
   137  131  133 1    
   138  131  134 1    
@<TRIPOS>SUBSTRUCTURE
     1 UNK         1 GROUP             0       ****    0 ROOT    
@<TRIPOS>MOLECULE
048_c1
91   98    1
SMALL
USER_CHARGES


@<TRIPOS>ATOM
      1 O1          3.4749    1.7044  -16.9615 O.co2     1 UNK         0.0000 
      2 N2          4.5895    1.2588  -16.3461 N.am      1 UNK         0.0000 
      3 C3          5.8281    2.0024  -16.6536 C.3       1 UNK         0.0000 
      4 C4          6.8848    1.9494  -15.5318 C.3       1 UNK         0.0000 
      5 C5          6.9914    0.5362  -14.9903 C.3       1 UNK         0.0000 
      6 C6          5.6300    0.0977  -14.3968 C.3       1 UNK         0.0000 
      7 H7          5.7376   -0.9898  -14.3827 H         1 UNK         0.0000 
      8 C8          4.3911    0.3738  -15.3114 C.2       1 UNK         0.0000 
      9 O9          3.2323    0.0982  -14.9266 O.co2     1 UNK         0.0000 
     10 N10         5.3091    0.5713  -13.0220 N.am      1 UNK         0.0000 
     11 C11         4.6515   -0.1925  -12.1365 C.2       1 UNK         0.0000 
     12 O12         4.7721   -1.4204  -12.2105 O.2       1 UNK         0.0000 
     13 C13         3.8022    0.4679  -10.9803 C.3       1 UNK         0.0000 
     14 H14         4.4948    0.6906  -10.1625 H         1 UNK         0.0000 
     15 C15         2.9676    1.7522  -11.3245 C.3       1 UNK         0.0000 
     16 C16         3.6117    3.1413  -11.6269 C.3       1 UNK         0.0000 
     17 C17         2.7390    4.1239  -12.5217 C.3       1 UNK         0.0000 
     18 N18         2.3783    3.6174  -13.8634 N.pl3     1 UNK         0.0000 
     19 O19         3.0897    2.5994  -14.2190 O.co2     1 UNK         0.0000 
     20 C20         1.4134    4.1244  -14.6792 C.2       1 UNK         0.0000 
     21 O21         1.1291    3.5463  -15.7576 O.co2     1 UNK         0.0000 
     22 N22         2.8114   -0.5264  -10.5397 N.am      1 UNK         0.0000 
     23 C23         3.0734   -1.6525   -9.8656 C.2       1 UNK         0.0000 
     24 O24         4.0669   -1.7931   -9.1517 O.2       1 UNK         0.0000 
     25 C25         2.0286   -2.7954   -9.9896 C.3       1 UNK         0.0000 
     26 H26         1.5969   -2.9046   -8.9979 H         1 UNK         0.0000 
     27 C27         2.6294   -4.1672  -10.4129 C.3       1 UNK         0.0000 
     28 O28         3.3700   -4.8135   -9.3948 O.3       1 UNK         0.0000 
     29 N29         0.8889   -2.4795  -10.8724 N.am      1 UNK         0.0000 
     30 C30         0.9057   -2.4517  -12.2208 C.2       1 UNK         0.0000 
     31 O31         1.9342   -2.6344  -12.8606 O.2       1 UNK         0.0000 
     32 C32        -0.4565   -2.2276  -12.9414 C.3       1 UNK         0.0000 
     33 H33        -0.9735   -3.1892  -12.9059 H         1 UNK         0.0000 
     34 C34        -1.3347   -1.2073  -12.1715 C.3       1 UNK         0.0000 
     35 O35        -2.6638   -1.1334  -12.6564 O.3       1 UNK         0.0000 
     36 N36        -0.3020   -1.8513  -14.3593 N.am      1 UNK         0.0000 
     37 C37         0.0359   -2.7316  -15.3263 C.2       1 UNK         0.0000 
     38 O38         0.1404   -3.9462  -15.1108 O.2       1 UNK         0.0000 
     39 C39         0.2207   -2.2593  -16.8082 C.3       1 UNK         0.0000 
     40 H40         0.4748   -3.1528  -17.3937 H         1 UNK         0.0000 
     41 C41         1.3658   -1.2137  -17.0336 C.3       1 UNK         0.0000 
     42 O42         1.0408    0.1762  -16.9086 O.co2     1 UNK         0.0000 
     43 N43        -0.9180   -1.5916  -17.3935 N.am      1 UNK         0.0000 
     44 C44        -2.2044   -1.5204  -17.0739 C.2       1 UNK         0.0000 
     45 O45        -2.9260   -2.4757  -16.7655 O.2       1 UNK         0.0000 
     46 C46        -2.7318   -0.0537  -17.1499 C.3       1 UNK         0.0000 
     47 H47        -2.7224    0.2319  -18.2051 H         1 UNK         0.0000 
     48 N48        -1.8464    0.8228  -16.4111 N.2       1 UNK         0.0000 
     49 C49        -2.4244    1.1293  -15.3329 C.2       1 UNK         0.0000 
     50 O50        -3.7254    0.6995  -15.2656 O.3       1 UNK         0.0000 
     51 C51        -4.0887    0.1228  -16.5013 C.3       1 UNK         0.0000 
     52 C52        -1.9250    1.8720  -14.1531 C.ar      1 UNK         0.0000 
     53 C53        -0.6074    1.7700  -13.6234 C.ar      1 UNK         0.0000 
     54 O54         0.3672    1.0745  -14.1331 O.co2     1 UNK         0.0000 
     55 C55        -0.3610    2.4461  -12.4188 C.ar      1 UNK         0.0000 
     56 C56        -1.3207    3.2298  -11.7786 C.ar      1 UNK         0.0000 
     57 C57        -2.5881    3.3545  -12.3235 C.ar      1 UNK         0.0000 
     58 C58        -2.8810    2.6720  -13.4937 C.ar      1 UNK         0.0000 
     59 H59         5.5496    3.0425  -16.8275 H         1 UNK         0.0000 
     60 H60         6.2267    1.6085  -17.5894 H         1 UNK         0.0000 
     61 H61         6.6092    2.6276  -14.7244 H         1 UNK         0.0000 
     62 H62         7.8440    2.3172  -15.8940 H         1 UNK         0.0000 
     63 H63         7.7941    0.4569  -14.2536 H         1 UNK         0.0000 
     64 H64         7.2792   -0.1426  -15.7984 H         1 UNK         0.0000 
     65 H65         5.2047    1.5711  -12.9313 H         1 UNK         0.0000 
     66 H66         2.2453    1.9146  -10.5213 H         1 UNK         0.0000 
     67 H67         2.3791    1.4495  -12.1897 H         1 UNK         0.0000 
     68 H68         3.8296    3.6465  -10.6923 H         1 UNK         0.0000 
     69 H69         4.5824    2.9974  -12.0958 H         1 UNK         0.0000 
     70 H70         3.2837    5.0598  -12.6811 H         1 UNK         0.0000 
     71 H71         1.8087    4.3846  -12.0058 H         1 UNK         0.0000 
     72 H72         0.9158    5.0169  -14.2703 H         1 UNK         0.0000 
     73 H73         1.9890   -0.5460  -11.1263 H         1 UNK         0.0000 
     74 H74         3.2571   -4.0750  -11.3034 H         1 UNK         0.0000 
     75 H75         1.8241   -4.8506  -10.6841 H         1 UNK         0.0000 
     76 H76         4.2147   -5.0667   -9.7762 H         1 UNK         0.0000 
     77 H77         0.0134   -2.3284  -10.4044 H         1 UNK         0.0000 
     78 H78        -0.8548   -0.2346  -12.1293 H         1 UNK         0.0000 
     79 H79        -1.4509   -1.4854  -11.1229 H         1 UNK         0.0000 
     80 H80        -2.6735   -0.4455  -13.3336 H         1 UNK         0.0000 
     81 H81        -0.2548   -0.8487  -14.5569 H         1 UNK         0.0000 
     82 H82         1.7891   -1.4119  -18.0235 H         1 UNK         0.0000 
     83 H83         2.1967   -1.5307  -16.4161 H         1 UNK         0.0000 
     84 H84        -0.5240   -0.6540  -17.5516 H         1 UNK         0.0000 
     85 H85        -4.6940    0.8144  -17.0866 H         1 UNK         0.0000 
     86 H86        -4.6649   -0.7885  -16.3522 H         1 UNK         0.0000 
     87 H87         0.6103    2.4172  -11.9757 H         1 UNK         0.0000 
     88 H88        -1.0497    3.7910  -10.8973 H         1 UNK         0.0000 
     89 H89        -3.3251    3.9941  -11.8680 H         1 UNK         0.0000 
     90 H90        -3.8657    2.8064  -13.9207 H         1 UNK         0.0000 
     91 Fe91        1.9585    1.5675  -15.5411 Fe        1 UNK         0.0000 
@<TRIPOS>BOND
     1    1    2 1    
     2    1   91 nc   
     3    2    3 1    
     4    2    8 am   BACKBONE|DICT|INTERRES
     5    3    4 1    
     6    3   59 1    
     7    3   60 1    
     8    4    5 1    
     9    4   61 1    
    10    4   62 1    
    11    5    6 1    
    12    5   63 1    
    13    5   64 1    
    14    6    8 1    
    15    6   10 1    
    16    6    7 1    
    17    8    9 2    
    18    9   91 nc   
    19   10   11 am   BACKBONE|DICT|INTERRES
    20   10   65 1    
    21   11   12 2    
    22   11   13 1    
    23   13   14 1    
    24   13   15 1    
    25   13   22 1    
    26   15   16 1    
    27   15   66 1    
    28   15   67 1    
    29   16   17 1    
    30   16   68 1    
    31   16   69 1    
    32   17   18 1    
    33   17   70 1    
    34   17   71 1    
    35   18   19 1    
    36   18   20 1    
    37   19   91 nc   
    38   20   21 2    
    39   20   72 1    
    40   21   91 nc   
    41   22   23 am   BACKBONE|DICT|INTERRES
    42   22   73 1    
    43   23   24 2    
    44   23   25 1    
    45   25   27 1    
    46   25   29 1    
    47   25   26 1    
    48   27   28 1    
    49   27   74 1    
    50   27   75 1    
    51   28   76 1    
    52   29   30 am   BACKBONE|DICT|INTERRES
    53   29   77 1    
    54   30   31 2    
    55   30   32 1    
    56   32   33 1    
    57   32   34 1    
    58   32   36 1    
    59   34   35 1    
    60   34   78 1    
    61   34   79 1    
    62   35   80 1    
    63   36   37 am   BACKBONE|DICT|INTERRES
    64   36   81 1    
    65   37   38 2    
    66   37   39 1    
    67   39   41 1    
    68   39   43 1    
    69   39   40 1    
    70   41   42 1    
    71   41   82 1    
    72   41   83 1    
    73   42   91 nc   
    74   43   44 am   BACKBONE|DICT|INTERRES
    75   43   84 1    
    76   44   45 2    
    77   44   46 1    
    78   46   48 1    
    79   46   51 1    
    80   46   47 1    
    81   48   49 2    
    82   49   50 1    
    83   49   52 1    
    84   50   51 1    
    85   51   85 1    
    86   51   86 1    
    87   52   53 ar   
    88   52   58 ar   
    89   53   54 1    
    90   53   55 ar   
    91   54   91 nc   
    92   55   56 ar   
    93   55   87 1    
    94   56   57 ar   
    95   56   88 1    
    96   57   58 ar   
    97   57   89 1    
    98   58   90 1    
@<TRIPOS>SUBSTRUCTURE
     1 UNK         1 GROUP             0       ****    0 ROOT    
@<TRIPOS>MOLECULE
049_c1
97   102    1
SMALL
USER_CHARGES


@<TRIPOS>ATOM
      1 O1         -2.5565    1.2271   -7.9084 O.co2     1 UNK         0.0000 
      2 C2         -3.7649    1.0221   -7.7995 C.2       1 UNK         0.0000 
      3 C3         -4.3678    0.5752   -6.4777 C.3       1 UNK         0.0000 
      4 N4         -4.5175    1.1990   -8.9075 N.am      1 UNK         0.0000 
      5 O5         -4.0673    2.0026   -9.9005 O.co2     1 UNK         0.0000 
      6 C6         -5.4625    0.1420   -9.3946 C.3       1 UNK         0.0000 
      7 C7         -5.3893   -1.3774   -8.9366 C.3       1 UNK         0.0000 
      8 C8         -4.1052   -2.2828   -8.7443 C.3       1 UNK         0.0000 
      9 C9         -2.9650   -2.5078   -9.8072 C.3       1 UNK         0.0000 
     10 H10        -2.3177   -3.3167   -9.4552 H         1 UNK         0.0000 
     11 C11        -2.1765   -1.2107   -9.8837 C.2       1 UNK         0.0000 
     12 O12        -2.8317   -0.2775  -10.2786 O.co2     1 UNK         0.0000 
     13 N13        -3.4076   -2.7549  -11.1891 N.am      1 UNK         0.0000 
     14 C14        -2.5978   -3.4257  -12.0394 C.2       1 UNK         0.0000 
     15 O15        -2.1007   -4.5040  -11.7231 O.2       1 UNK         0.0000 
     16 C16        -2.0917   -2.7260  -13.3376 C.3       1 UNK         0.0000 
     17 H17        -2.3175   -3.3311  -14.2186 H         1 UNK         0.0000 
     18 C18        -2.6975   -1.2960  -13.4875 C.3       1 UNK         0.0000 
     19 C19        -1.9706   -0.1859  -14.2690 C.3       1 UNK         0.0000 
     20 C20        -2.5855    1.2295  -14.0543 C.3       1 UNK         0.0000 
     21 N21        -2.8606    1.5993  -12.6538 N.3       1 UNK         0.0000 
     22 O22        -1.6374    1.5946  -11.9554 O.co2     1 UNK         0.0000 
     23 N23        -0.6486   -2.7242  -13.1263 N.am      1 UNK         0.0000 
     24 C24         0.3734   -2.4302  -13.9367 C.2       1 UNK         0.0000 
     25 O25         0.2436   -2.1863  -15.1369 O.2       1 UNK         0.0000 
     26 C26         1.7829   -2.3548  -13.2938 C.3       1 UNK         0.0000 
     27 H27         2.3702   -3.1288  -13.7856 H         1 UNK         0.0000 
     28 C28         1.7824   -2.6408  -11.7614 C.3       1 UNK         0.0000 
     29 C29         1.1077   -1.5119  -10.9440 C.3       1 UNK         0.0000 
     30 C30         0.1871   -1.9332   -9.7646 C.3       1 UNK         0.0000 
     31 N31        -0.8877   -0.9520   -9.5533 N.am      1 UNK         0.0000 
     32 O32        -0.4400    0.3147   -9.4622 O.co2     1 UNK         0.0000 
     33 N33         2.3869   -1.0568  -13.6074 N.am      1 UNK         0.0000 
     34 C34         3.6815   -0.7540  -13.4157 C.2       1 UNK         0.0000 
     35 O35         4.5021   -1.5871  -13.0273 O.2       1 UNK         0.0000 
     36 C36         4.1301    0.6913  -13.7326 C.3       1 UNK         0.0000 
     37 H37         3.9364    0.8482  -14.7950 H         1 UNK         0.0000 
     38 C38         5.6483    0.9743  -13.5241 C.3       1 UNK         0.0000 
     39 O39         6.4896    0.1534  -14.3142 O.3       1 UNK         0.0000 
     40 N40         3.3606    1.7126  -13.0109 N.am      1 UNK         0.0000 
     41 C41         3.4041    1.9209  -11.6764 C.2       1 UNK         0.0000 
     42 O42         3.9693    1.1423  -10.9109 O.2       1 UNK         0.0000 
     43 C43         2.8332    3.2616  -11.1627 C.3       1 UNK         0.0000 
     44 H44         2.3970    3.7935  -12.0148 H         1 UNK         0.0000 
     45 C45         3.9315    4.1878  -10.5623 C.3       1 UNK         0.0000 
     46 O46         4.9071    4.6291  -11.4994 O.3       1 UNK         0.0000 
     47 N47         1.7392    3.1203  -10.2000 N.am      1 UNK         0.0000 
     48 C48         1.8459    2.7177   -8.9152 C.2       1 UNK         0.0000 
     49 O49         2.8809    2.2194   -8.4595 O.2       1 UNK         0.0000 
     50 C50         0.6709    2.9277   -7.9178 C.3       1 UNK         0.0000 
     51 H51         0.3407    1.9169   -7.6802 H         1 UNK         0.0000 
     52 C52        -0.6183    3.7082   -8.3944 C.3       1 UNK         0.0000 
     53 O53        -1.2588    3.3308   -9.5838 O.co2     1 UNK         0.0000 
     54 N54         1.1970    3.4516   -6.6428 N.am      1 UNK         0.0000 
     55 C55         1.8973    4.5850   -6.4360 C.2       1 UNK         0.0000 
     56 O56         2.2051    5.3716   -7.3279 O.2       1 UNK         0.0000 
     57 C57         2.2951    4.8761   -4.9981 C.3       1 UNK         0.0000 
     58 H58        -4.1268    1.3102   -5.7094 H         1 UNK         0.0000 
     59 H59        -3.9622   -0.3820   -6.1604 H         1 UNK         0.0000 
     60 H60        -5.4531    0.5021   -6.5405 H         1 UNK         0.0000 
     61 H61        -6.4695    0.5275   -9.1956 H         1 UNK         0.0000 
     62 H62        -5.3992    0.1073  -10.4923 H         1 UNK         0.0000 
     63 H63        -6.0731   -1.9159   -9.5962 H         1 UNK         0.0000 
     64 H64        -5.9074   -1.4130   -7.9796 H         1 UNK         0.0000 
     65 H65        -4.4821   -3.2827   -8.5122 H         1 UNK         0.0000 
     66 H66        -3.6169   -1.9644   -7.8247 H         1 UNK         0.0000 
     67 H67        -3.8186   -1.9106  -11.5746 H         1 UNK         0.0000 
     68 H68        -3.7318   -1.3553  -13.8209 H         1 UNK         0.0000 
     69 H69        -2.7310   -0.8588  -12.5093 H         1 UNK         0.0000 
     70 H70        -0.9319   -0.1085  -13.9362 H         1 UNK         0.0000 
     71 H71        -1.9529   -0.4142  -15.3370 H         1 UNK         0.0000 
     72 H72        -3.5367    1.2853  -14.5936 H         1 UNK         0.0000 
     73 H73        -1.9281    1.9792  -14.4997 H         1 UNK         0.0000 
     74 H74        -3.1793    2.5691  -12.6161 H         1 UNK         0.0000 
     75 H75        -0.4091   -2.9769  -12.1794 H         1 UNK         0.0000 
     76 H76         2.8019   -2.7723  -11.3921 H         1 UNK         0.0000 
     77 H77         1.3053   -3.6043  -11.5790 H         1 UNK         0.0000 
     78 H78         0.5142   -0.9042  -11.6230 H         1 UNK         0.0000 
     79 H79         1.8586   -0.8113  -10.5759 H         1 UNK         0.0000 
     80 H80         0.7645   -2.0639   -8.8453 H         1 UNK         0.0000 
     81 H81        -0.2330   -2.9170   -9.9687 H         1 UNK         0.0000 
     82 H82         1.7518   -0.3503  -13.9616 H         1 UNK         0.0000 
     83 H83         5.9315    0.8397  -12.4740 H         1 UNK         0.0000 
     84 H84         5.8725    2.0178  -13.7708 H         1 UNK         0.0000 
     85 H85         6.5736   -0.6843  -13.8418 H         1 UNK         0.0000 
     86 H86         2.8956    2.4089  -13.5752 H         1 UNK         0.0000 
     87 H87         4.4577    3.6944   -9.7388 H         1 UNK         0.0000 
     88 H88         3.4548    5.0726  -10.1264 H         1 UNK         0.0000 
     89 H89         5.6455    4.9727  -10.9870 H         1 UNK         0.0000 
     90 H90         0.8244    3.4752  -10.4767 H         1 UNK         0.0000 
     91 H91        -0.3401    4.7655   -8.4312 H         1 UNK         0.0000 
     92 H92        -1.3209    3.6706   -7.5584 H         1 UNK         0.0000 
     93 H93         1.1120    2.8145   -5.8648 H         1 UNK         0.0000 
     94 H94         2.0620    4.0178   -4.3611 H         1 UNK         0.0000 
     95 H95         1.7346    5.7386   -4.6312 H         1 UNK         0.0000 
     96 H96         3.3614    5.1030   -4.9046 H         1 UNK         0.0000 
     97 Fe97       -2.1031    1.4514   -9.9008 Fe        1 UNK         0.0000 
@<TRIPOS>BOND
     1    1    2 2    
     2    1   97 nc   
     3    2    3 1    
     4    2    4 am   BACKBONE|DICT|INTERRES
     5    3   58 1    
     6    3   59 1    
     7    3   60 1    
     8    4    5 1    
     9    4    6 1    
    10    5   97 nc   
    11    6    7 1    
    12    6   61 1    
    13    6   62 1    
    14    7    8 1    
    15    7   63 1    
    16    7   64 1    
    17    8    9 1    
    18    8   65 1    
    19    8   66 1    
    20    9   10 1    
    21    9   11 1    
    22    9   13 1    
    23   11   12 2    
    24   11   31 am   BACKBONE|DICT|INTERRES
    25   12   97 nc   
    26   13   14 am   BACKBONE|DICT|INTERRES
    27   13   67 1    
    28   14   15 2    
    29   14   16 1    
    30   16   23 1    
    31   16   18 1    
    32   16   17 1    
    33   18   19 1    
    34   18   68 1    
    35   18   69 1    
    36   19   20 1    
    37   19   70 1    
    38   19   71 1    
    39   20   21 1    
    40   20   72 1    
    41   20   73 1    
    42   21   22 1    
    43   21   74 1    
    44   22   97 nc   
    45   23   24 am   BACKBONE|DICT|INTERRES
    46   23   75 1    
    47   24   25 2    
    48   24   26 1    
    49   26   28 1    
    50   26   33 1    
    51   26   27 1    
    52   28   29 1    
    53   28   76 1    
    54   28   77 1    
    55   29   30 1    
    56   29   78 1    
    57   29   79 1    
    58   30   31 1    
    59   30   80 1    
    60   30   81 1    
    61   31   32 1    
    62   32   97 nc   
    63   33   34 am   BACKBONE|DICT|INTERRES
    64   33   82 1    
    65   34   35 2    
    66   34   36 1    
    67   36   38 1    
    68   36   40 1    
    69   36   37 1    
    70   38   39 1    
    71   38   83 1    
    72   38   84 1    
    73   39   85 1    
    74   40   41 am   BACKBONE|DICT|INTERRES
    75   40   86 1    
    76   41   42 2    
    77   41   43 1    
    78   43   45 1    
    79   43   47 1    
    80   43   44 1    
    81   45   46 1    
    82   45   87 1    
    83   45   88 1    
    84   46   89 1    
    85   47   48 am   BACKBONE|DICT|INTERRES
    86   47   90 1    
    87   48   49 2    
    88   48   50 1    
    89   50   52 1    
    90   50   54 1    
    91   50   51 1    
    92   52   53 1    
    93   52   91 1    
    94   52   92 1    
    95   53   97 nc   
    96   54   55 am   BACKBONE|DICT|INTERRES
    97   54   93 1    
    98   55   56 2    
    99   55   57 1    
   100   57   94 1    
   101   57   95 1    
   102   57   96 1    
@<TRIPOS>SUBSTRUCTURE
     1 UNK         1 GROUP             0       ****    0 ROOT    
@<TRIPOS>MOLECULE
050_c1
100   108    1
SMALL
USER_CHARGES


@<TRIPOS>ATOM
      1 O1         -0.9617   -0.8986   -4.9774 O.co2     1 UNK         0.0000 
      2 C2          0.2311   -1.4886   -4.9905 C.ar      1 UNK         0.0000 
      3 C3          0.8788   -1.8537   -3.8106 C.ar      1 UNK         0.0000 
      4 C4          0.8483   -1.5352   -6.2263 C.ar      1 UNK         0.0000 
      5 O5          0.1592   -1.0127   -7.2703 O.co2     1 UNK         0.0000 
      6 C6          2.1937   -1.8496   -6.3138 C.ar      1 UNK         0.0000 
      7 C7          2.9157   -2.0122   -5.1152 C.ar      1 UNK         0.0000 
      8 C8          2.2788   -2.0948   -3.8302 C.ar      1 UNK         0.0000 
      9 C9          4.3646   -1.6177   -5.1315 C.3       1 UNK         0.0000 
     10 C10         4.3611   -0.4857   -4.0588 C.3       1 UNK         0.0000 
     11 H11         3.4048    0.0827   -4.1328 H         1 UNK         0.0000 
     12 C12         4.3061   -1.2035   -2.6974 C.3       1 UNK         0.0000 
     13 N13         3.1068   -2.1254   -2.6034 N.4       1 UNK         0.0000 
     14 C14         3.5804   -3.5106   -2.4546 C.3       1 UNK         0.0000 
     15 C15         2.3502   -1.7890   -1.3853 C.3       1 UNK         0.0000 
     16 N16         5.3200    0.5828   -4.2905 N.am      1 UNK         0.0000 
     17 C17         5.0884    1.8261   -3.7485 C.2       1 UNK         0.0000 
     18 O18         4.3973    1.9548   -2.7464 O.2       1 UNK         0.0000 
     19 C19         5.4558    3.0532   -4.5660 C.3       1 UNK         0.0000 
     20 H20         6.5340    2.9617   -4.8285 H         1 UNK         0.0000 
     21 C21         5.2801    4.3997   -3.8414 C.3       1 UNK         0.0000 
     22 O22         6.1253    4.4404   -2.7246 O.3       1 UNK         0.0000 
     23 N23         4.6475    2.9643   -5.7873 N.am      1 UNK         0.0000 
     24 C24         3.2661    3.0309   -5.8375 C.2       1 UNK         0.0000 
     25 O25         2.6173    3.4264   -4.8816 O.2       1 UNK         0.0000 
     26 C26         2.5443    2.2941   -6.9532 C.3       1 UNK         0.0000 
     27 H27         3.3708    1.6548   -7.3505 H         1 UNK         0.0000 
     28 C28         1.5598    1.1947   -6.4877 C.3       1 UNK         0.0000 
     29 O29         0.2754    1.4769   -5.9160 O.co2     1 UNK         0.0000 
     30 N30         2.0784    2.9726   -8.1556 N.am      1 UNK         0.0000 
     31 C31         0.8056    3.4195   -8.3110 C.2       1 UNK         0.0000 
     32 O32         0.1186    3.6771   -7.3328 O.2       1 UNK         0.0000 
     33 C33         0.1645    3.2954   -9.6988 C.3       1 UNK         0.0000 
     34 H34         0.5615    2.3792  -10.1900 H         1 UNK         0.0000 
     35 C35         0.4760    4.5370  -10.5814 C.3       1 UNK         0.0000 
     36 H36         0.0491    5.4301  -10.0629 H         1 UNK         0.0000 
     37 O37        -0.1410    4.3719  -11.8332 O.3       1 UNK         0.0000 
     38 C38         1.9721    4.7821  -10.8032 C.3       1 UNK         0.0000 
     39 N39        -1.2841    3.1184   -9.5715 N.am      1 UNK         0.0000 
     40 C40        -1.9089    2.2002   -8.7542 C.2       1 UNK         0.0000 
     41 O41        -1.2057    1.3756   -8.1190 O.co2     1 UNK         0.0000 
     42 C42        -3.3527    2.5916   -8.4585 C.3       1 UNK         0.0000 
     43 C43        -4.3368    1.5493   -7.9736 C.3       1 UNK         0.0000 
     44 H44        -3.8178    0.7847   -7.4444 H         1 UNK         0.0000 
     45 O45        -4.9214    0.9022   -9.0651 O.3       1 UNK         0.0000 
     46 C46        -5.4300    2.1691   -7.0589 C.3       1 UNK         0.0000 
     47 C47        -5.0261    3.0990   -5.8365 C.3       1 UNK         0.0000 
     48 H48        -4.5912    4.0543   -6.2072 H         1 UNK         0.0000 
     49 O49        -6.2171    3.4143   -5.1596 O.3       1 UNK         0.0000 
     50 C50        -4.0129    2.5725   -4.7554 C.3       1 UNK         0.0000 
     51 H51        -4.0192    3.2559   -3.8778 H         1 UNK         0.0000 
     52 N52        -4.3762    1.2243   -4.4394 N.2       1 UNK         0.0000 
     53 C53        -3.5582    0.4619   -5.0614 C.2       1 UNK         0.0000 
     54 O54        -2.5506    1.1288   -5.6880 O.3       1 UNK         0.0000 
     55 C55        -2.5564    2.4149   -5.2271 C.3       1 UNK         0.0000 
     56 C56        -3.7998   -0.9897   -5.2035 C.ar      1 UNK         0.0000 
     57 C57        -3.2332   -1.6963   -6.2849 C.ar      1 UNK         0.0000 
     58 O58        -2.4148   -1.0780   -7.1642 O.co2     1 UNK         0.0000 
     59 C59        -3.5175   -3.0554   -6.4566 C.ar      1 UNK         0.0000 
     60 C60        -4.3493   -3.7201   -5.5518 C.ar      1 UNK         0.0000 
     61 C61        -4.9186   -3.0243   -4.4832 C.ar      1 UNK         0.0000 
     62 C62        -4.6579   -1.6621   -4.3158 C.ar      1 UNK         0.0000 
     63 H63         0.3157   -1.7565   -2.8955 H         1 UNK         0.0000 
     64 H64         2.6947   -1.7104   -7.2643 H         1 UNK         0.0000 
     65 H65         4.6204   -1.1971   -6.1290 H         1 UNK         0.0000 
     66 H66         5.0879   -2.4292   -4.9051 H         1 UNK         0.0000 
     67 H67         4.3042   -0.4344   -1.8932 H         1 UNK         0.0000 
     68 H68         5.2719   -1.7489   -2.5791 H         1 UNK         0.0000 
     69 H69         4.1845   -3.8402   -3.3269 H         1 UNK         0.0000 
     70 H70         2.7253   -4.2195   -2.3611 H         1 UNK         0.0000 
     71 H71         4.2156   -3.6285   -1.5471 H         1 UNK         0.0000 
     72 H72         1.9520   -0.7509   -1.4417 H         1 UNK         0.0000 
     73 H73         2.9976   -1.8515   -0.4807 H         1 UNK         0.0000 
     74 H74         1.5049   -2.4920   -1.2119 H         1 UNK         0.0000 
     75 H75         5.9073    0.5140   -5.1357 H         1 UNK         0.0000 
     76 H76         4.2315    4.5443   -3.5089 H         1 UNK         0.0000 
     77 H77         5.5612    5.2142   -4.5454 H         1 UNK         0.0000 
     78 H78         5.9800    5.3255   -2.2999 H         1 UNK         0.0000 
     79 H79         5.1590    2.6389   -6.6223 H         1 UNK         0.0000 
     80 H80         2.1146    0.5991   -5.7574 H         1 UNK         0.0000 
     81 H81         1.4248    0.6961   -7.4556 H         1 UNK         0.0000 
     82 H82         2.5970    2.7368   -9.0171 H         1 UNK         0.0000 
     83 H83        -0.3616    5.2796  -12.1712 H         1 UNK         0.0000 
     84 H84         2.1101    5.6769  -11.4470 H         1 UNK         0.0000 
     85 H85         2.4379    3.9077  -11.3045 H         1 UNK         0.0000 
     86 H86         2.4907    4.9842   -9.8439 H         1 UNK         0.0000 
     87 H87        -1.8696    3.8407  -10.0213 H         1 UNK         0.0000 
     88 H88        -3.8283    3.1357   -9.3050 H         1 UNK         0.0000 
     89 H89        -3.2306    3.3983   -7.7300 H         1 UNK         0.0000 
     90 H90        -6.0396    1.3218   -6.6747 H         1 UNK         0.0000 
     91 H91        -6.0957    2.7819   -7.7062 H         1 UNK         0.0000 
     92 H92        -6.6849    4.1112   -5.6914 H         1 UNK         0.0000 
     93 H93        -2.1997    3.1881   -5.9265 H         1 UNK         0.0000 
     94 H94        -1.8720    2.4360   -4.3495 H         1 UNK         0.0000 
     95 H95        -3.0807   -3.6005   -7.2836 H         1 UNK         0.0000 
     96 H96        -4.5549   -4.7747   -5.6803 H         1 UNK         0.0000 
     97 H97        -5.5674   -3.5393   -3.7865 H         1 UNK         0.0000 
     98 H98        -5.1181   -1.1368   -3.4879 H         1 UNK         0.0000 
     99 Fe99       -1.1426    0.1762   -6.5428 Fe        1 UNK         0.0000 
    100 H100       -5.5506    0.2360   -8.7470 H         1 UNK         0.0000 
@<TRIPOS>BOND
     1    1    2 1    
     2    1   99 nc   
     3    2    3 ar   
     4    2    4 ar   
     5    3    8 ar   
     6    3   63 1    
     7    4    5 1    
     8    4    6 ar   
     9    5   99 nc   
    10    6    7 ar   
    11    6   64 1    
    12    7    8 ar   
    13    7    9 1    
    14    8   13 1    
    15    9   10 1    
    16    9   65 1    
    17    9   66 1    
    18   10   11 1    
    19   10   12 1    
    20   10   16 1    
    21   12   13 1    
    22   12   67 1    
    23   12   68 1    
    24   13   14 1    
    25   13   15 1    
    26   14   69 1    
    27   14   70 1    
    28   14   71 1    
    29   15   72 1    
    30   15   73 1    
    31   15   74 1    
    32   16   17 am   BACKBONE|DICT|INTERRES
    33   16   75 1    
    34   17   18 2    
    35   17   19 1    
    36   19   21 1    
    37   19   23 1    
    38   19   20 1    
    39   21   22 1    
    40   21   76 1    
    41   21   77 1    
    42   22   78 1    
    43   23   24 am   BACKBONE|DICT|INTERRES
    44   23   79 1    
    45   24   25 2    
    46   24   26 1    
    47   26   27 1    
    48   26   28 1    
    49   26   30 1    
    50   28   29 1    
    51   28   80 1    
    52   28   81 1    
    53   29   99 nc   
    54   30   31 am   BACKBONE|DICT|INTERRES
    55   30   82 1    
    56   31   32 2    
    57   31   33 1    
    58   33   39 1    
    59   33   34 1    
    60   33   35 1    
    61   35   37 1    
    62   35   38 1    
    63   35   36 1    
    64   37   83 1    
    65   38   84 1    
    66   38   85 1    
    67   38   86 1    
    68   39   40 am   BACKBONE|DICT|INTERRES
    69   39   87 1    
    70   40   41 2    
    71   40   42 1    
    72   41   99 nc   
    73   42   88 1    
    74   42   89 1    
    75   42   43 1    
    76   43   45 1    
    77   43   46 1    
    78   43   44 1    
    79   45  100 1    
    80   46   47 1    
    81   46   90 1    
    82   46   91 1    
    83   47   48 1    
    84   47   49 1    
    85   47   50 1    
    86   49   92 1    
    87   50   51 1    
    88   50   52 1    
    89   50   55 1    
    90   52   53 2    
    91   53   54 1    
    92   53   56 1    
    93   54   55 1    
    94   54   99 nc   
    95   55   93 1    
    96   55   94 1    
    97   56   57 ar   
    98   56   62 ar   
    99   57   58 1    
   100   57   59 ar   
   101   58   99 nc   
   102   59   60 ar   
   103   59   95 1    
   104   60   61 ar   
   105   60   96 1    
   106   61   62 ar   
   107   61   97 1    
   108   62   98 1    
@<TRIPOS>SUBSTRUCTURE
     1 UNK         1 GROUP             0       ****    0 ROOT    
@<TRIPOS>MOLECULE
051_c1
100   108    1
SMALL
USER_CHARGES


@<TRIPOS>ATOM
      1 O1         -0.9961   -1.0967   -4.8364 O.co2     1 UNK         0.0000 
      2 C2          0.1133   -1.6835   -4.9718 C.ar      1 UNK         0.0000 
      3 C3          0.8219   -1.9591   -3.8115 C.ar      1 UNK         0.0000 
      4 C4          0.7345   -1.8181   -6.2301 C.ar      1 UNK         0.0000 
      5 O5          0.1709   -1.4304   -7.3069 O.co2     1 UNK         0.0000 
      6 C6          2.1036   -2.0640   -6.2855 C.ar      1 UNK         0.0000 
      7 C7          2.8672   -2.0240   -5.1130 C.ar      1 UNK         0.0000 
      8 C8          2.2099   -2.0952   -3.8715 C.ar      1 UNK         0.0000 
      9 C9          4.2901   -1.4839   -5.1645 C.3       1 UNK         0.0000 
     10 C10         4.3859   -0.4061   -4.0474 C.3       1 UNK         0.0000 
     11 H11         3.4555    0.1670   -4.1208 H         1 UNK         0.0000 
     12 C12         4.3081   -1.1275   -2.6764 C.3       1 UNK         0.0000 
     13 N13         3.0489   -2.0766   -2.6036 N.4       1 UNK         0.0000 
     14 C14         3.5458   -3.5289   -2.3942 C.3       1 UNK         0.0000 
     15 C15         2.2637   -1.6746   -1.3208 C.3       1 UNK         0.0000 
     16 N16         5.3756    0.6703   -4.2260 N.am      1 UNK         0.0000 
     17 C17         5.1664    1.8836   -3.6637 C.2       1 UNK         0.0000 
     18 O18         4.6114    1.9917   -2.5708 O.2       1 UNK         0.0000 
     19 C19         5.4619    3.1368   -4.5447 C.3       1 UNK         0.0000 
     20 H20         6.4712    3.0233   -4.9355 H         1 UNK         0.0000 
     21 C21         5.3921    4.4864   -3.7808 C.3       1 UNK         0.0000 
     22 O22         6.4624    4.6268   -2.8694 O.3       1 UNK         0.0000 
     23 N23         4.5508    3.1396   -5.7104 N.am      1 UNK         0.0000 
     24 C24         3.2143    3.3314   -5.6586 C.2       1 UNK         0.0000 
     25 O25         2.6612    4.0029   -4.7951 O.2       1 UNK         0.0000 
     26 C26         2.3977    2.5310   -6.7069 C.3       1 UNK         0.0000 
     27 H27         3.1935    1.9269   -7.1357 H         1 UNK         0.0000 
     28 C28         1.4325    1.4164   -6.1717 C.3       1 UNK         0.0000 
     29 O29         0.0395    1.5866   -6.0555 O.co2     1 UNK         0.0000 
     30 N30         2.0207    3.1856   -7.9535 N.am      1 UNK         0.0000 
     31 C31         0.8504    3.7421   -8.2720 C.2       1 UNK         0.0000 
     32 O32         0.1729    4.5003   -7.5813 O.2       1 UNK         0.0000 
     33 C33         0.3889    3.3542   -9.6807 C.3       1 UNK         0.0000 
     34 H34         0.9371    2.4881  -10.0570 H         1 UNK         0.0000 
     35 C35         0.6661    4.5843  -10.5819 C.3       1 UNK         0.0000 
     36 H36         0.2147    5.4724  -10.1336 H         1 UNK         0.0000 
     37 O37         0.0303    4.3754  -11.8325 O.3       1 UNK         0.0000 
     38 C38         2.1618    4.8728  -10.8260 C.3       1 UNK         0.0000 
     39 N39        -1.0202    2.9943   -9.7533 N.am      1 UNK         0.0000 
     40 C40        -1.7411    2.0333   -9.1453 C.2       1 UNK         0.0000 
     41 O41        -1.3142    1.1318   -8.3685 O.co2     1 UNK         0.0000 
     42 C42        -3.2176    2.1309   -9.5408 C.3       1 UNK         0.0000 
     43 C43        -4.2281    1.5037   -8.5797 C.3       1 UNK         0.0000 
     44 O44        -5.4615    1.5310   -9.2647 O.3       1 UNK         0.0000 
     45 C45        -4.4601    2.2728   -7.2609 C.3       1 UNK         0.0000 
     46 O46        -5.4822    3.7801   -3.3296 O.3       1 UNK         0.0000 
     47 C47        -3.8908    2.5002   -4.7255 C.3       1 UNK         0.0000 
     48 N48        -4.4139    1.2028   -4.3511 N.2       1 UNK         0.0000 
     49 C49        -3.7727    0.3642   -5.0822 C.2       1 UNK         0.0000 
     50 O50        -2.8327    0.9469   -5.9220 O.3       1 UNK         0.0000 
     51 C51        -3.3368    2.2678   -6.1480 C.3       1 UNK         0.0000 
     52 C52        -3.9732   -1.0960   -5.2312 C.ar      1 UNK         0.0000 
     53 C53        -3.4775   -1.8188   -6.3503 C.ar      1 UNK         0.0000 
     54 O54        -2.7568   -1.2988   -7.2587 O.co2     1 UNK         0.0000 
     55 C55        -3.7465   -3.1829   -6.4642 C.ar      1 UNK         0.0000 
     56 C56        -4.5054   -3.8369   -5.4942 C.ar      1 UNK         0.0000 
     57 C57        -4.9874   -3.1369   -4.3947 C.ar      1 UNK         0.0000 
     58 C58        -4.7305   -1.7723   -4.2629 C.ar      1 UNK         0.0000 
     59 H59         0.2918   -1.8268   -2.8763 H         1 UNK         0.0000 
     60 H60         2.5792   -1.9850   -7.2537 H         1 UNK         0.0000 
     61 H61         4.4356   -0.9786   -6.1229 H         1 UNK         0.0000 
     62 H62         5.1072   -2.2073   -5.1295 H         1 UNK         0.0000 
     63 H63         4.2506   -0.4020   -1.8622 H         1 UNK         0.0000 
     64 H64         5.2067   -1.7208   -2.4980 H         1 UNK         0.0000 
     65 H65         4.1473   -3.8140   -3.2586 H         1 UNK         0.0000 
     66 H66         2.6696   -4.1768   -2.3160 H         1 UNK         0.0000 
     67 H67         4.1393   -3.5681   -1.4781 H         1 UNK         0.0000 
     68 H68         1.8660   -0.6696   -1.4724 H         1 UNK         0.0000 
     69 H69         2.9514   -1.6953   -0.4720 H         1 UNK         0.0000 
     70 H70         1.4598   -2.3942   -1.1556 H         1 UNK         0.0000 
     71 H71         5.9834    0.6136   -5.0303 H         1 UNK         0.0000 
     72 H72         4.4566    4.5982   -3.2245 H         1 UNK         0.0000 
     73 H73         5.4300    5.3177   -4.4869 H         1 UNK         0.0000 
     74 H74         6.1455    5.1665   -2.1366 H         1 UNK         0.0000 
     75 H75         4.9191    2.6961   -6.5333 H         1 UNK         0.0000 
     76 H76         1.8581    0.9933   -5.2680 H         1 UNK         0.0000 
     77 H77         1.6000    0.6128   -6.8939 H         1 UNK         0.0000 
     78 H78         2.5141    2.8032   -8.7401 H         1 UNK         0.0000 
     79 H79         0.1883    5.1381  -12.3966 H         1 UNK         0.0000 
     80 H80         2.3067    5.6857  -11.5373 H         1 UNK         0.0000 
     81 H81         2.6776    3.9934  -11.2193 H         1 UNK         0.0000 
     82 H82         2.6780    5.1691   -9.9099 H         1 UNK         0.0000 
     83 H83        -1.4782    3.5822  -10.4359 H         1 UNK         0.0000 
     84 H84        -3.3084    1.6488  -10.5133 H         1 UNK         0.0000 
     85 H85        -3.4890    3.1765   -9.7054 H         1 UNK         0.0000 
     86 H86        -3.3630   -3.7271   -7.3123 H         1 UNK         0.0000 
     87 H87        -4.6995   -4.8928   -5.6080 H         1 UNK         0.0000 
     88 H88        -5.5624   -3.6426   -3.6370 H         1 UNK         0.0000 
     89 H89        -5.1214   -1.2383   -3.4045 H         1 UNK         0.0000 
     90 Fe90       -1.2440   -0.1037   -6.6347 Fe        1 UNK         0.0000 
     91 H91        -3.9985    0.4550   -8.4024 H         1 UNK         0.0000 
     92 H92        -5.8007    2.4270   -9.2847 H         1 UNK         0.0000 
     93 C93        -4.9799    3.6118   -4.6335 C.3       1 UNK         0.0000 
     94 H94        -5.8039    2.9174   -3.0423 H         1 UNK         0.0000 
     95 H95        -3.0724    2.7531   -4.0411 H         1 UNK         0.0000 
     96 H96        -4.5785    4.5644   -4.9837 H         1 UNK         0.0000 
     97 H97        -5.8344    3.3781   -5.2643 H         1 UNK         0.0000 
     98 H98        -5.3611    1.8304   -6.8283 H         1 UNK         0.0000 
     99 H99        -4.7398    3.3050   -7.4793 H         1 UNK         0.0000 
    100 H100       -2.5356    2.9702   -6.3800 H         1 UNK         0.0000 
@<TRIPOS>BOND
     1    1    2 1    
     2    1   90 nc   
     3    2    3 ar   
     4    2    4 ar   
     5    3    8 ar   
     6    3   59 1    
     7    4    5 1    
     8    4    6 ar   
     9    5   90 nc   
    10    6    7 ar   
    11    6   60 1    
    12    7    8 ar   
    13    7    9 1    
    14    8   13 1    
    15    9   10 1    
    16    9   61 1    
    17    9   62 1    
    18   10   11 1    
    19   10   12 1    
    20   10   16 1    
    21   12   13 1    
    22   12   63 1    
    23   12   64 1    
    24   13   14 1    
    25   13   15 1    
    26   14   65 1    
    27   14   66 1    
    28   14   67 1    
    29   15   68 1    
    30   15   69 1    
    31   15   70 1    
    32   16   17 am   BACKBONE|DICT|INTERRES
    33   16   71 1    
    34   17   18 2    
    35   17   19 1    
    36   19   21 1    
    37   19   23 1    
    38   19   20 1    
    39   21   22 1    
    40   21   72 1    
    41   21   73 1    
    42   22   74 1    
    43   23   24 am   BACKBONE|DICT|INTERRES
    44   23   75 1    
    45   24   25 2    
    46   24   26 1    
    47   26   27 1    
    48   26   28 1    
    49   26   30 1    
    50   28   29 1    
    51   28   76 1    
    52   28   77 1    
    53   29   90 nc   
    54   30   31 am   BACKBONE|DICT|INTERRES
    55   30   78 1    
    56   31   32 2    
    57   31   33 1    
    58   33   39 1    
    59   33   34 1    
    60   33   35 1    
    61   35   37 1    
    62   35   38 1    
    63   35   36 1    
    64   37   79 1    
    65   38   80 1    
    66   38   81 1    
    67   38   82 1    
    68   39   40 am   BACKBONE|DICT|INTERRES
    69   39   83 1    
    70   40   41 2    
    71   40   42 1    
    72   41   90 nc   
    73   42   84 1    
    74   42   85 1    
    75   42   43 1    
    76   43   44 1    
    77   43   45 1    
    78   43   91 1    
    79   44   92 1    
    80   45   51 1    
    81   45   98 1    
    82   45   99 1    
    83   46   94 1    
    84   46   93 1    
    85   47   48 1    
    86   47   51 1    
    87   47   95 1    
    88   47   93 1    
    89   48   49 2    
    90   49   50 1    
    91   49   52 1    
    92   50   51 1    
    93   50   90 nc   
    94   51  100 1    
    95   52   53 ar   
    96   52   58 ar   
    97   53   54 1    
    98   53   55 ar   
    99   54   90 nc   
   100   55   56 ar   
   101   55   86 1    
   102   56   57 ar   
   103   56   87 1    
   104   57   58 ar   
   105   57   88 1    
   106   58   89 1    
   107   93   96 1    
   108   93   97 1    
@<TRIPOS>SUBSTRUCTURE
     1 UNK         1 GROUP             0       ****    0 ROOT    
@<TRIPOS>MOLECULE
052_c1
104   111    1
SMALL
USER_CHARGES


@<TRIPOS>ATOM
      1 O1         -1.2345   -0.9633   -4.4204 O.co2     1 UNK         0.0000 
      2 C2         -0.1964   -1.6485   -4.6531 C.ar      1 UNK         0.0000 
      3 C3          0.5939   -1.9368   -3.5404 C.ar      1 UNK         0.0000 
      4 C4          0.2797   -1.8827   -5.9608 C.ar      1 UNK         0.0000 
      5 O5         -0.3779   -1.4934   -7.0071 O.co2     1 UNK         0.0000 
      6 C6          1.6300   -2.2315   -6.1105 C.ar      1 UNK         0.0000 
      7 C7          2.4998   -2.1583   -5.0074 C.ar      1 UNK         0.0000 
      8 C8          1.9648   -2.1660   -3.7097 C.ar      1 UNK         0.0000 
      9 C9          3.9251   -1.6367   -5.1983 C.3       1 UNK         0.0000 
     10 C10         4.1537   -0.5415   -4.1016 C.3       1 UNK         0.0000 
     11 H11         3.2287    0.0458   -4.0825 H         1 UNK         0.0000 
     12 C12         4.1826   -1.2297   -2.7181 C.3       1 UNK         0.0000 
     13 N13         2.9195   -2.1515   -2.5187 N.4       1 UNK         0.0000 
     14 C14         3.4134   -3.6079   -2.3270 C.3       1 UNK         0.0000 
     15 C15         2.2618   -1.7184   -1.1778 C.3       1 UNK         0.0000 
     16 N16         5.1399    0.5284   -4.3636 N.am      1 UNK         0.0000 
     17 C17         4.9765    1.7568   -3.8117 C.2       1 UNK         0.0000 
     18 O18         4.3839    1.8945   -2.7409 O.2       1 UNK         0.0000 
     19 C19         5.3404    2.9900   -4.6933 C.3       1 UNK         0.0000 
     20 H20         6.3685    2.8656   -5.0229 H         1 UNK         0.0000 
     21 C21         5.2426    4.3572   -3.9622 C.3       1 UNK         0.0000 
     22 O22         6.3048    4.5222   -3.0388 O.3       1 UNK         0.0000 
     23 N23         4.4964    2.9874   -5.9010 N.am      1 UNK         0.0000 
     24 C24         3.1507    3.0983   -5.8851 C.2       1 UNK         0.0000 
     25 O25         2.5206    3.7097   -5.0249 O.2       1 UNK         0.0000 
     26 C26         2.4197    2.2582   -6.9575 C.3       1 UNK         0.0000 
     27 H27         3.2302    1.6795   -7.3938 H         1 UNK         0.0000 
     28 C28         1.4633    1.1435   -6.4221 C.3       1 UNK         0.0000 
     29 O29         0.1119    1.4428   -6.1642 O.co2     1 UNK         0.0000 
     30 N30         1.9402    2.9459   -8.1436 N.am      1 UNK         0.0000 
     31 C31         0.7614    3.5606   -8.3122 C.2       1 UNK         0.0000 
     32 O32         0.1541    4.2588   -7.5147 O.2       1 UNK         0.0000 
     33 C33         0.0964    3.1345   -9.6287 C.3       1 UNK         0.0000 
     34 H34         0.6235    2.2871  -10.0776 H         1 UNK         0.0000 
     35 C35         0.2565    4.3698  -10.5564 C.3       1 UNK         0.0000 
     36 H36        -0.1419    5.2628  -10.0638 H         1 UNK         0.0000 
     37 O37        -0.5238    4.1495  -11.7191 O.3       1 UNK         0.0000 
     38 C38         1.7158    4.6565  -10.9675 C.3       1 UNK         0.0000 
     39 N39        -1.3155    2.7325   -9.5198 N.am      1 UNK         0.0000 
     40 C40        -2.0188    2.1973   -8.4807 C.2       1 UNK         0.0000 
     41 O41        -1.7651    0.9056   -7.9936 O.2       1 UNK         0.0000 
     42 C42        -3.3273    2.8711   -8.0413 C.3       1 UNK         0.0000 
     43 C43        -4.5390    1.9512   -7.7757 C.3       1 UNK         0.0000 
     44 H44        -4.2911    1.1284   -7.1456 H         1 UNK         0.0000 
     45 O45        -4.9347    1.3794   -8.9928 O.3       1 UNK         0.0000 
     46 C46        -5.6703    2.6476   -7.0274 C.3       1 UNK         0.0000 
     47 C47        -5.3348    2.9284   -5.5365 C.3       1 UNK         0.0000 
     48 H48        -4.5141    3.6427   -5.4485 H         1 UNK         0.0000 
     49 O49        -6.4803    3.6002   -5.0409 O.3       1 UNK         0.0000 
     50 C50        -5.0589    1.6683   -4.6240 C.3       1 UNK         0.0000 
     51 H51        -5.3173    2.0135   -3.6199 H         1 UNK         0.0000 
     52 N52        -6.0456    0.6011   -4.7971 N.am      1 UNK         0.0000 
     53 O53        -2.5861    1.5631   -5.3627 O.3       1 UNK         0.0000 
     54 C54        -3.5742    1.2449   -4.3534 C.3       1 UNK         0.0000 
     55 C55        -5.0853   -1.6829   -5.2817 C.ar      1 UNK         0.0000 
     56 C56        -3.8612   -1.7997   -5.9953 C.ar      1 UNK         0.0000 
     57 O57        -3.3139   -0.8703   -6.6609 O.co2     1 UNK         0.0000 
     58 C58        -3.1385   -2.9977   -5.9258 C.ar      1 UNK         0.0000 
     59 C59        -3.5674   -4.0641   -5.1451 C.ar      1 UNK         0.0000 
     60 C60        -4.7400   -3.9513   -4.4154 C.ar      1 UNK         0.0000 
     61 C61        -5.4966   -2.7832   -4.4980 C.ar      1 UNK         0.0000 
     62 H62         0.1526   -1.7425   -2.5703 H         1 UNK         0.0000 
     63 H63         2.0332   -2.2322   -7.1148 H         1 UNK         0.0000 
     64 H64         3.9735   -1.1404   -6.1700 H         1 UNK         0.0000 
     65 H65         4.7360   -2.3663   -5.2481 H         1 UNK         0.0000 
     66 H66         4.2004   -0.4799   -1.9257 H         1 UNK         0.0000 
     67 H67         5.0849   -1.8291   -2.6039 H         1 UNK         0.0000 
     68 H68         3.9428   -3.9179   -3.2314 H         1 UNK         0.0000 
     69 H69         2.5395   -4.2458   -2.1592 H         1 UNK         0.0000 
     70 H70         4.0809   -3.6375   -1.4597 H         1 UNK         0.0000 
     71 H71         1.8828   -0.7012   -1.3097 H         1 UNK         0.0000 
     72 H72         3.0231   -1.7477   -0.3905 H         1 UNK         0.0000 
     73 H73         1.4548   -2.4181   -0.9378 H         1 UNK         0.0000 
     74 H74         5.7318    0.4391   -5.1757 H         1 UNK         0.0000 
     75 H75         4.2918    4.4795   -3.4293 H         1 UNK         0.0000 
     76 H76         5.2922    5.1789   -4.6832 H         1 UNK         0.0000 
     77 H77         6.0609    5.2177   -2.4175 H         1 UNK         0.0000 
     78 H78         4.9376    2.6091   -6.7196 H         1 UNK         0.0000 
     79 H79         1.9286    0.6791   -5.5657 H         1 UNK         0.0000 
     80 H80         1.5251    0.3529   -7.1808 H         1 UNK         0.0000 
     81 H81         2.3637    2.5989   -8.9876 H         1 UNK         0.0000 
     82 H82        -0.3555    4.8590  -12.3500 H         1 UNK         0.0000 
     83 H83         1.7811    5.4720  -11.6845 H         1 UNK         0.0000 
     84 H84         2.1830    3.7733  -11.4077 H         1 UNK         0.0000 
     85 H85         2.3267    4.9519  -10.1132 H         1 UNK         0.0000 
     86 H86        -1.8142    3.3520  -10.1581 H         1 UNK         0.0000 
     87 H87        -3.6134    3.6036   -8.7946 H         1 UNK         0.0000 
     88 H88        -3.0572    3.4427   -7.1556 H         1 UNK         0.0000 
     89 H89        -6.5583    2.0169   -7.0632 H         1 UNK         0.0000 
     90 H90        -5.9410    3.5656   -7.5519 H         1 UNK         0.0000 
     91 H91        -6.6558    4.3935   -5.5582 H         1 UNK         0.0000 
     92 H92        -3.2235    1.8243   -3.4955 H         1 UNK         0.0000 
     93 H93        -3.5189    0.1971   -4.0229 H         1 UNK         0.0000 
     94 H94        -2.2183   -3.1405   -6.4730 H         1 UNK         0.0000 
     95 H95        -2.9836   -4.9713   -5.1195 H         1 UNK         0.0000 
     96 H96        -5.0839   -4.7829   -3.8203 H         1 UNK         0.0000 
     97 H97        -6.4313   -2.7421   -3.9556 H         1 UNK         0.0000 
     98 Fe98       -1.4961   -0.0207   -6.2099 Fe        1 UNK         0.0000 
     99 H99        -5.7219    0.8338   -8.8412 H         1 UNK         0.0000 
    100 C100       -6.0973   -0.5651   -5.4567 C.2       1 UNK         0.0000 
    101 O101       -7.1436   -0.8022   -6.0486 O.2       1 UNK         0.0000 
    102 H102       -6.9845    0.9564   -4.7225 H         1 UNK         0.0000 
    103 H103       -2.3483    0.4224   -8.6225 H         1 UNK         0.0000 
    104 H104       -2.1543    2.3816   -5.0163 H         1 UNK         0.0000 
@<TRIPOS>BOND
     1    1    2 1    
     2    1   98 nc   
     3    2    3 ar   
     4    2    4 ar   
     5    3    8 ar   
     6    3   62 1    
     7    4    5 1    
     8    4    6 ar   
     9    5   98 nc   
    10    6    7 ar   
    11    6   63 1    
    12    7    8 ar   
    13    7    9 1    
    14    8   13 1    
    15    9   10 1    
    16    9   64 1    
    17    9   65 1    
    18   10   11 1    
    19   10   12 1    
    20   10   16 1    
    21   12   13 1    
    22   12   66 1    
    23   12   67 1    
    24   13   14 1    
    25   13   15 1    
    26   14   68 1    
    27   14   69 1    
    28   14   70 1    
    29   15   71 1    
    30   15   72 1    
    31   15   73 1    
    32   16   17 am   BACKBONE|DICT|INTERRES
    33   16   74 1    
    34   17   18 2    
    35   17   19 1    
    36   19   21 1    
    37   19   23 1    
    38   19   20 1    
    39   21   22 1    
    40   21   75 1    
    41   21   76 1    
    42   22   77 1    
    43   23   24 am   BACKBONE|DICT|INTERRES
    44   23   78 1    
    45   24   25 2    
    46   24   26 1    
    47   26   27 1    
    48   26   28 1    
    49   26   30 1    
    50   28   29 1    
    51   28   79 1    
    52   28   80 1    
    53   29   98 nc   
    54   30   31 am   BACKBONE|DICT|INTERRES
    55   30   81 1    
    56   31   32 2    
    57   31   33 1    
    58   33   39 1    
    59   33   34 1    
    60   33   35 1    
    61   35   37 1    
    62   35   38 1    
    63   35   36 1    
    64   37   82 1    
    65   38   83 1    
    66   38   84 1    
    67   38   85 1    
    68   39   40 am   BACKBONE|DICT|INTERRES
    69   39   86 1    
    70   40   41 2    
    71   40   42 1    
    72   41  103 1    
    73   41   98 nc   
    74   42   87 1    
    75   42   88 1    
    76   42   43 1    
    77   43   45 1    
    78   43   46 1    
    79   43   44 1    
    80   45   99 1    
    81   46   47 1    
    82   46   89 1    
    83   46   90 1    
    84   47   48 1    
    85   47   49 1    
    86   47   50 1    
    87   49   91 1    
    88   50   51 1    
    89   50   52 1    
    90   50   54 1    
    91   52  102 1    
    92   52  100 am   BACKBONE|DICT|INTERRES
    93   53   54 1    
    94   53  104 1    
    95   53   98 nc   
    96   54   92 1    
    97   54   93 1    
    98   55   56 ar   
    99   55   61 ar   
   100   55  100 1    
   101   56   57 1    
   102   56   58 ar   
   103   57   98 nc   
   104   58   59 ar   
   105   58   94 1    
   106   59   60 ar   
   107   59   95 1    
   108   60   61 ar   
   109   60   96 1    
   110   61   97 1    
   111  100  101 2    
@<TRIPOS>SUBSTRUCTURE
     1 UNK         1 GROUP             0       ****    0 ROOT    
@<TRIPOS>MOLECULE
053_c1
81   90    1
SMALL
USER_CHARGES


@<TRIPOS>ATOM
      1 C1         -2.2125    3.2308    1.7162 C.ar      1 UNK         0.0000 
      2 C2         -2.5052    4.5678    1.9872 C.ar      1 UNK         0.0000 
      3 C3         -1.7339    5.5897    1.4699 C.ar      1 UNK         0.0000 
      4 C4         -0.6770    5.2999    0.6077 C.ar      1 UNK         0.0000 
      5 O5         -0.0294    6.3641    0.0203 O.3       1 UNK         0.0000 
      6 C6         -0.3291    3.9559    0.3373 C.ar      1 UNK         0.0000 
      7 O7          0.6870    3.7571   -0.4385 O.co2     1 UNK         0.0000 
      8 C8         -1.1181    2.8907    0.9127 C.ar      1 UNK         0.0000 
      9 C9         -0.8068    1.4393    0.6963 C.2       1 UNK         0.0000 
     10 S10        -1.3118   -0.1091    1.5559 S.3       1 UNK         0.0000 
     11 C11         0.0110   -1.0541    0.6351 C.3       1 UNK         0.0000 
     12 N12         0.0573    1.1525   -0.1526 N.pl3     1 UNK         0.0000 
     13 C13         0.9479    0.1514    0.4343 C.3       1 UNK         0.0000 
     14 H14         1.3187    0.4810    1.4279 H         1 UNK         0.0000 
     15 C15         2.2954    0.2498   -0.3648 C.2       1 UNK         0.0000 
     16 O16         2.4317    1.2605   -1.1000 O.co2     1 UNK         0.0000 
     17 N17         3.3778   -0.5266   -0.1657 N.am      1 UNK         0.0000 
     18 O18         3.2588   -1.5992    0.7224 O.3       1 UNK         0.0000 
     19 C19         4.6784   -0.2983   -0.8274 C.3       1 UNK         0.0000 
     20 C20         5.0782   -1.4086   -1.7945 C.3       1 UNK         0.0000 
     21 C21         6.2733   -1.0059   -2.6491 C.ar      1 UNK         0.0000 
     22 N22         6.8134   -1.8612   -3.5869 N.pl3     1 UNK         0.0000 
     23 H23         6.4736   -2.8018   -3.7611 H         1 UNK         0.0000 
     24 C24         7.8862   -1.2670   -4.2368 C.ar      1 UNK         0.0000 
     25 N25         8.0279   -0.0026   -3.7014 N.pl3     1 UNK         0.0000 
     26 H26         8.7396    0.6860   -3.9681 H         1 UNK         0.0000 
     27 C27         7.0463    0.1631   -2.7319 C.ar      1 UNK         0.0000 
     28 H28        -2.8723    2.4767    2.1129 H         1 UNK         0.0000 
     29 H29        -3.3322    4.8179    2.6332 H         1 UNK         0.0000 
     30 H30        -1.9494    6.6317    1.7075 H         1 UNK         0.0000 
     31 H31        -0.1202    7.1715    0.5295 H         1 UNK         0.0000 
     32 H32        -0.4210   -1.4452   -0.2939 H         1 UNK         0.0000 
     33 H33         0.4266   -1.8901    1.2073 H         1 UNK         0.0000 
     34 H34         3.6389   -1.2713    1.5507 H         1 UNK         0.0000 
     35 H35         5.4403   -0.1100   -0.0730 H         1 UNK         0.0000 
     36 H36         4.6595    0.6244   -1.4088 H         1 UNK         0.0000 
     37 H37         4.2232   -1.6480   -2.4237 H         1 UNK         0.0000 
     38 H38         5.2729   -2.3092   -1.2174 H         1 UNK         0.0000 
     39 H39         8.5076   -1.7112   -5.0124 H         1 UNK         0.0000 
     40 H40         6.9956    1.0992   -2.1875 H         1 UNK         0.0000 
     41 C41        -6.0299    4.3923   -3.6467 C.ar      1 UNK         0.0000 
     42 H42        -3.7043    6.8324   -3.2680 H         1 UNK         0.0000 
     43 O43        -1.1112    6.3244   -4.0152 O.3       1 UNK         0.0000 
     44 H44        -3.2262    4.6598   -2.2016 H         1 UNK         0.0000 
     45 N45        -7.3589    4.6093   -3.9967 N.pl3     1 UNK         0.0000 
     46 H46        -8.1242    3.9339   -3.9094 H         1 UNK         0.0000 
     47 H47        -5.7309    3.4328   -3.2404 H         1 UNK         0.0000 
     48 H48         1.3116    5.2739   -2.8411 H         1 UNK         0.0000 
     49 C49        -5.2956    5.5466   -3.9452 C.ar      1 UNK         0.0000 
     50 C50        -3.8373    5.9223   -3.8498 C.3       1 UNK         0.0000 
     51 H51        -1.0443    6.9904   -3.3107 H         1 UNK         0.0000 
     52 C52        -7.4684    5.8906   -4.5032 C.ar      1 UNK         0.0000 
     53 C53        -2.9555    4.8320   -3.2458 C.3       1 UNK         0.0000 
     54 N54        -1.5112    5.1298   -3.3697 N.am      1 UNK         0.0000 
     55 N55        -6.2012    6.4463   -4.4627 N.pl3     1 UNK         0.0000 
     56 C56         0.9634    4.4635   -3.4965 C.3       1 UNK         0.0000 
     57 C57        -0.5508    4.2187   -3.1117 C.2       1 UNK         0.0000 
     58 H58        -8.3714    6.3666   -4.8777 H         1 UNK         0.0000 
     59 H59        -5.9562    7.3791   -4.7858 H         1 UNK         0.0000 
     60 N60         1.6624    3.1982   -3.1926 N.pl3     1 UNK         0.0000 
     61 O61        -0.8479    3.1533   -2.5124 O.co2     1 UNK         0.0000 
     62 O62         0.6829    0.5888   -2.9500 O.co2     1 UNK         0.0000 
     63 H63        -3.4828    6.1379   -4.8559 H         1 UNK         0.0000 
     64 H64        -3.1714    3.8915   -3.7571 H         1 UNK         0.0000 
     65 H65         1.1849    5.8357   -5.2440 H         1 UNK         0.0000 
     66 C66         1.1323    4.7694   -5.0083 C.3       1 UNK         0.0000 
     67 C67         2.2546    2.7079   -4.2152 C.2       1 UNK         0.0000 
     68 C68         1.6518    0.2723   -3.7233 C.ar      1 UNK         0.0000 
     69 C69         2.5007    1.2436   -4.3395 C.ar      1 UNK         0.0000 
     70 O70         1.1890   -2.0711   -3.2765 O.3       1 UNK         0.0000 
     71 C71         1.8871   -1.0958   -3.9532 C.ar      1 UNK         0.0000 
     72 H72         0.3382    4.3189   -5.6121 H         1 UNK         0.0000 
     73 S73         2.5938    3.8745   -5.5452 S.3       1 UNK         0.0000 
     74 H74         1.2187   -2.9303   -3.6974 H         1 UNK         0.0000 
     75 C75         3.5176    0.7996   -5.1959 C.ar      1 UNK         0.0000 
     76 C76         2.8741   -1.4942   -4.8447 C.ar      1 UNK         0.0000 
     77 C77         3.6892   -0.5568   -5.4495 C.ar      1 UNK         0.0000 
     78 H78         4.1827    1.4923   -5.6936 H         1 UNK         0.0000 
     79 H79         2.9869   -2.5512   -5.0655 H         1 UNK         0.0000 
     80 H80         4.4320   -0.8820   -6.1564 H         1 UNK         0.0000 
     81 Fe81        0.7704    2.1779   -1.7182 Fe        1 UNK         0.0000 
@<TRIPOS>BOND
     1    1    2 ar   
     2    1    8 ar   
     3    1   28 1    
     4    2    3 ar   
     5    2   29 1    
     6    3    4 ar   
     7    3   30 1    
     8    4    5 1    
     9    4    6 ar   
    10    5   31 1    
    11    6    7 1    
    12    6    8 ar   
    13    7   81 nc   
    14    8    9 1    
    15    9   10 1    
    16    9   12 2    
    17   10   11 1    
    18   11   13 1    
    19   11   32 1    
    20   11   33 1    
    21   12   13 1    
    22   12   81 nc   
    23   13   14 1    
    24   13   15 1    
    25   15   16 2    
    26   15   17 am   BACKBONE|DICT|INTERRES
    27   16   81 nc   
    28   17   18 1    
    29   17   19 1    
    30   18   34 1    
    31   19   20 1    
    32   19   35 1    
    33   19   36 1    
    34   20   21 1    
    35   20   37 1    
    36   20   38 1    
    37   21   22 ar   
    38   21   27 ar   
    39   22   23 1    
    40   22   24 ar   
    41   24   25 ar   
    42   24   39 1    
    43   25   26 1    
    44   25   27 ar   
    45   27   40 1    
    46   41   47 1    
    47   41   45 ar   
    48   41   49 ar   
    49   42   50 1    
    50   43   51 1    
    51   43   54 1    
    52   44   53 1    
    53   45   46 1    
    54   45   52 ar   
    55   48   56 1    
    56   49   55 ar   
    57   49   50 1    
    58   50   63 1    
    59   50   53 1    
    60   52   58 1    
    61   52   55 ar   
    62   53   64 1    
    63   53   54 1    
    64   54   57 am   BACKBONE|DICT|INTERRES
    65   55   59 1    
    66   56   57 1    
    67   56   60 1    
    68   56   66 1    
    69   57   61 2    
    70   60   67 2    
    71   60   81 nc   
    72   61   81 nc   
    73   62   68 1    
    74   62   81 nc   
    75   65   66 1    
    76   66   72 1    
    77   66   73 1    
    78   67   73 1    
    79   67   69 1    
    80   68   69 ar   
    81   68   71 ar   
    82   69   75 ar   
    83   70   74 1    
    84   70   71 1    
    85   71   76 ar   
    86   75   77 ar   
    87   75   78 1    
    88   76   79 1    
    89   76   77 ar   
    90   77   80 1    
@<TRIPOS>SUBSTRUCTURE
     1 UNK         1 GROUP             0       ****    0 ROOT    
@<TRIPOS>MOLECULE
054_D_c1
152   156    1
SMALL
USER_CHARGES


@<TRIPOS>ATOM
      1 O1         26.0207    9.0221   -9.5749 O.co2     1 UNK         0.0000 
      2 C2         25.2743    8.0360   -9.6530 C.2       1 UNK         0.0000 
      3 C3         25.5512    6.9992  -10.7514 C.3       1 UNK         0.0000 
      4 N4         24.2544    7.9464   -8.7433 N.am      1 UNK         0.0000 
      5 O5         24.0743    8.9153   -7.8113 O.co2     1 UNK         0.0000 
      6 C6         23.1140    6.9876   -8.7847 C.3       1 UNK         0.0000 
      7 C7         23.2196    5.5532   -9.3863 C.3       1 UNK         0.0000 
      8 C8         24.0367    4.5153   -8.5578 C.3       1 UNK         0.0000 
      9 C9         24.1135    3.0494   -9.1618 C.3       1 UNK         0.0000 
     10 H10        24.8500    3.0008   -9.9758 H         1 UNK         0.0000 
     11 C11        22.7455    2.5859   -9.7857 C.2       1 UNK         0.0000 
     12 O12        21.9076    2.0896   -9.0058 O.co2     1 UNK         0.0000 
     13 O13        22.6501    2.8379  -11.0214 O.co2     1 UNK         0.0000 
     14 N14        24.4435    2.0957   -8.0825 N.am      1 UNK         0.0000 
     15 C15        25.6455    1.6510   -7.7039 C.2       1 UNK         0.0000 
     16 O16        26.6800    1.7568   -8.3629 O.2       1 UNK         0.0000 
     17 C17        25.7165    1.1455   -6.2539 C.3       1 UNK         0.0000 
     18 H18        24.7038    1.1763   -5.8547 H         1 UNK         0.0000 
     19 C19        26.2442   -0.3036   -6.0535 C.3       1 UNK         0.0000 
     20 O20        27.6614   -0.3978   -6.1041 O.3       1 UNK         0.0000 
     21 N21        26.5606    2.0811   -5.5219 N.am      1 UNK         0.0000 
     22 C22        26.1786    3.3262   -5.2113 C.2       1 UNK         0.0000 
     23 O23        25.0018    3.6899   -5.2009 O.2       1 UNK         0.0000 
     24 C24        27.2658    4.3426   -4.8219 C.3       1 UNK         0.0000 
     25 H25        28.1937    3.8237   -4.5620 H         1 UNK         0.0000 
     26 C26        27.5705    5.3217   -5.9850 C.3       1 UNK         0.0000 
     27 C27        28.5733    6.4428   -5.5607 C.3       1 UNK         0.0000 
     28 C28        29.0381    7.4280   -6.6724 C.3       1 UNK         0.0000 
     29 N29        28.1343    8.5553   -7.0618 N.am      1 UNK         0.0000 
     30 O30        26.8246    8.3611   -6.8630 O.co2     1 UNK         0.0000 
     31 C31        28.5942    9.6589   -7.7174 C.2       1 UNK         0.0000 
     32 O32        27.7758   10.4710   -8.1848 O.co2     1 UNK         0.0000 
     33 C33        30.0910    9.8867   -7.9127 C.3       1 UNK         0.0000 
     34 N34        26.7633    5.0655   -3.6580 N.am      1 UNK         0.0000 
     35 C35        26.8054    4.5842   -2.4092 C.2       1 UNK         0.0000 
     36 O36        27.4033    3.5527   -2.1183 O.2       1 UNK         0.0000 
     37 C37        26.0842    5.4122   -1.3239 C.3       1 UNK         0.0000 
     38 H38        25.0125    5.2588   -1.4682 H         1 UNK         0.0000 
     39 C39        26.4667    5.0847    0.1512 C.3       1 UNK         0.0000 
     40 C40        26.2411    3.6353    0.6583 C.3       1 UNK         0.0000 
     41 C41        24.8203    3.1324    0.4215 C.2       1 UNK         0.0000 
     42 O42        23.9268    3.3700    1.2222 O.2       1 UNK         0.0000 
     43 N43        24.5830    2.4475   -0.6865 N.am      1 UNK         0.0000 
     44 N44        26.3819    6.8134   -1.5947 N.am      1 UNK         0.0000 
     45 C45        25.5138    7.8309   -1.5583 C.2       1 UNK         0.0000 
     46 O46        24.3621    7.7379   -1.1414 O.2       1 UNK         0.0000 
     47 C47        26.0616    9.1459   -2.1299 C.3       1 UNK         0.0000 
     48 H48        27.0442    9.2222   -1.6685 H         1 UNK         0.0000 
     49 C49        26.2277    9.0528   -3.6628 C.3       1 UNK         0.0000 
     50 O50        27.5547    9.3111   -4.0590 O.3       1 UNK         0.0000 
     51 N51        25.2748   10.3383   -1.8150 N.am      1 UNK         0.0000 
     52 C52        25.8504   11.4884   -1.4422 C.2       1 UNK         0.0000 
     53 O53        27.0172   11.5746   -1.0497 O.2       1 UNK         0.0000 
     54 C54        25.0276   12.7836   -1.6075 C.3       1 UNK         0.0000 
     55 H55        23.9604   12.5680   -1.5382 H         1 UNK         0.0000 
     56 C56        25.4445   13.8302   -0.5555 C.3       1 UNK         0.0000 
     57 O57        24.6259   14.9917   -0.5929 O.3       1 UNK         0.0000 
     58 N58        25.3697   13.3280   -2.9111 N.am      1 UNK         0.0000 
     59 C59        24.7499   13.1090   -4.0708 C.2       1 UNK         0.0000 
     60 O60        23.6298   12.6011   -4.1654 O.2       1 UNK         0.0000 
     61 C61        25.5736   13.6046   -5.2868 C.3       1 UNK         0.0000 
     62 H62        26.5898   13.5136   -4.9018 H         1 UNK         0.0000 
     63 C63        25.7752   12.5679   -6.5095 C.3       1 UNK         0.0000 
     64 O64        25.8962   11.1912   -6.1421 O.co2     1 UNK         0.0000 
     65 C65        24.8884   12.6980   -7.7974 C.2       1 UNK         0.0000 
     66 O66        25.0510   11.7124   -8.6128 O.co2     1 UNK         0.0000 
     67 O67        24.2547   13.7450   -8.0222 O.co2     1 UNK         0.0000 
     68 N68        25.4272   15.0831   -5.4784 N.am      1 UNK         0.0000 
     69 C69        26.1002   16.0103   -4.7236 C.2       1 UNK         0.0000 
     70 O70        27.0141   15.6662   -3.9667 O.2       1 UNK         0.0000 
     71 C71        25.8101   17.5504   -4.7868 C.3       1 UNK         0.0000 
     72 C72        24.7485   18.1216   -3.7835 C.3       1 UNK         0.0000 
     73 C73        24.0736   19.4953   -4.1148 C.3       1 UNK         0.0000 
     74 C74        24.7276   20.8953   -3.7907 C.3       1 UNK         0.0000 
     75 C75        24.7973   21.4630   -2.3122 C.3       1 UNK         0.0000 
     76 C76        24.3730   22.9811   -2.1219 C.3       1 UNK         0.0000 
     77 C77        24.9234   23.7038   -0.8410 C.3       1 UNK         0.0000 
     78 C78        23.9574   24.6655   -0.0685 C.3       1 UNK         0.0000 
     79 C79        23.8596   26.1764   -0.4726 C.3       1 UNK         0.0000 
     80 C80        24.7070   27.1785    0.3765 C.3       1 UNK         0.0000 
     81 C81        24.1151   28.6191    0.4483 C.3       1 UNK         0.0000 
     82 C82        24.9626   29.6201    1.2709 C.3       1 UNK         0.0000 
     83 C83        24.2879   30.9953    1.4687 C.3       1 UNK         0.0000 
     84 H84        26.4604    7.2637  -11.2903 H         1 UNK         0.0000 
     85 H85        24.7325    6.9799  -11.4735 H         1 UNK         0.0000 
     86 H86        25.7099    6.0005  -10.3374 H         1 UNK         0.0000 
     87 H87        22.2949    7.4967   -9.2910 H         1 UNK         0.0000 
     88 H88        22.7828    6.8254   -7.7543 H         1 UNK         0.0000 
     89 H89        23.4816    5.5316  -10.4450 H         1 UNK         0.0000 
     90 H90        22.1898    5.2025   -9.3843 H         1 UNK         0.0000 
     91 H91        25.0566    4.8654   -8.3981 H         1 UNK         0.0000 
     92 H92        23.5996    4.4607   -7.5476 H         1 UNK         0.0000 
     93 H93        23.6096    1.8424   -7.5659 H         1 UNK         0.0000 
     94 H94        25.9346   -0.6822   -5.0805 H         1 UNK         0.0000 
     95 H95        25.7875   -0.9676   -6.7860 H         1 UNK         0.0000 
     96 H96        27.9095   -0.9142   -6.8798 H         1 UNK         0.0000 
     97 H97        27.5258    1.8018   -5.5260 H         1 UNK         0.0000 
     98 H98        26.6439    5.7697   -6.3490 H         1 UNK         0.0000 
     99 H99        27.9680    4.7441   -6.8227 H         1 UNK         0.0000 
    100 H100       28.1556    7.0202   -4.7352 H         1 UNK         0.0000 
    101 H101       29.4520    5.9459   -5.1469 H         1 UNK         0.0000 
    102 H102       30.0210    7.7959   -6.3567 H         1 UNK         0.0000 
    103 H103       29.2342    6.8472   -7.5737 H         1 UNK         0.0000 
    104 H104       30.5839   10.0373   -6.9627 H         1 UNK         0.0000 
    105 H105       30.2360   10.7766   -8.5082 H         1 UNK         0.0000 
    106 H106       30.5799    9.0651   -8.4165 H         1 UNK         0.0000 
    107 H107       26.1200    5.8134   -3.8783 H         1 UNK         0.0000 
    108 H108       25.8866    5.7531    0.7924 H         1 UNK         0.0000 
    109 H109       27.5149    5.3454    0.3090 H         1 UNK         0.0000 
    110 H110       26.4412    3.5847    1.7297 H         1 UNK         0.0000 
    111 H111       26.9540    2.9421    0.2116 H         1 UNK         0.0000 
    112 H112       25.3049    2.3383   -1.3853 H         1 UNK         0.0000 
    113 H113       23.6331    2.1791   -0.8793 H         1 UNK         0.0000 
    114 H114       27.2829    6.9916   -2.0160 H         1 UNK         0.0000 
    115 H115       25.5699    9.7502   -4.1727 H         1 UNK         0.0000 
    116 H116       25.9598    8.0689   -4.0539 H         1 UNK         0.0000 
    117 H117       27.4833    9.4513   -5.0165 H         1 UNK         0.0000 
    118 H118       24.3204   10.3478   -2.1384 H         1 UNK         0.0000 
    119 H119       26.4871   14.1103   -0.6920 H         1 UNK         0.0000 
    120 H120       25.3550   13.3766    0.4275 H         1 UNK         0.0000 
    121 H121       25.1266   15.7200   -0.2127 H         1 UNK         0.0000 
    122 H122       26.2544   13.8167   -2.9726 H         1 UNK         0.0000 
    123 H123       24.6614   15.3035   -6.1062 H         1 UNK         0.0000 
    124 H124       26.7458   18.0797   -4.5681 H         1 UNK         0.0000 
    125 H125       25.5583   17.8253   -5.8090 H         1 UNK         0.0000 
    126 H126       25.1226   18.1617   -2.7666 H         1 UNK         0.0000 
    127 H127       23.9287   17.4070   -3.7608 H         1 UNK         0.0000 
    128 H128       23.1130   19.4893   -3.5980 H         1 UNK         0.0000 
    129 H129       23.8045   19.4778   -5.1809 H         1 UNK         0.0000 
    130 H130       24.0845   21.5764   -4.3515 H         1 UNK         0.0000 
    131 H131       25.7141   20.9719   -4.2580 H         1 UNK         0.0000 
    132 H132       25.8347   21.3547   -1.9868 H         1 UNK         0.0000 
    133 H133       24.2168   20.8469   -1.6124 H         1 UNK         0.0000 
    134 H134       23.2835   23.0401   -2.1089 H         1 UNK         0.0000 
    135 H135       24.6711   23.5694   -2.9923 H         1 UNK         0.0000 
    136 H136       25.8509   24.2318   -1.0581 H         1 UNK         0.0000 
    137 H137       25.2147   22.9321   -0.1299 H         1 UNK         0.0000 
    138 H138       24.2121   24.6197    0.9934 H         1 UNK         0.0000 
    139 H139       22.9502   24.2455   -0.1011 H         1 UNK         0.0000 
    140 H140       22.8134   26.4707   -0.3495 H         1 UNK         0.0000 
    141 H141       24.0646   26.3183   -1.5342 H         1 UNK         0.0000 
    142 H142       24.8042   26.8078    1.3999 H         1 UNK         0.0000 
    143 H143       25.7235   27.2263   -0.0206 H         1 UNK         0.0000 
    144 H144       23.9752   29.0134   -0.5615 H         1 UNK         0.0000 
    145 H145       23.1152   28.5710    0.8859 H         1 UNK         0.0000 
    146 H146       25.9307   29.7652    0.7912 H         1 UNK         0.0000 
    147 H147       25.1816   29.1923    2.2504 H         1 UNK         0.0000 
    148 H148       24.0710   31.4822    0.5175 H         1 UNK         0.0000 
    149 H149       24.9210   31.6774    2.0373 H         1 UNK         0.0000 
    150 H150       23.3476   30.9086    2.0137 H         1 UNK         0.0000 
    151 Fe151      25.8684    9.9473   -7.8349 Fe        1 UNK         0.0000 
    152 H152       26.7215   12.9214   -6.9389 H         1 UNK         0.0000 
@<TRIPOS>BOND
     1    1    2 2    
     2    1  151 nc   
     3    2    3 1    
     4    2    4 am   BACKBONE|DICT|INTERRES
     5    3   84 1    
     6    3   85 1    
     7    3   86 1    
     8    4    5 1    
     9    4    6 1    
    10    5  151 nc   
    11    6    7 1    
    12    6   87 1    
    13    6   88 1    
    14    7    8 1    
    15    7   89 1    
    16    7   90 1    
    17    8   91 1    
    18    8   92 1    
    19    8    9 1    
    20    9   11 1    
    21    9   14 1    
    22    9   10 1    
    23   11   12 1    
    24   11   13 2    
    25   14   15 am   BACKBONE|DICT|INTERRES
    26   14   93 1    
    27   15   16 2    
    28   15   17 1    
    29   17   18 1    
    30   17   19 1    
    31   17   21 1    
    32   19   20 1    
    33   19   94 1    
    34   19   95 1    
    35   20   96 1    
    36   21   22 am   BACKBONE|DICT|INTERRES
    37   21   97 1    
    38   22   23 2    
    39   22   24 1    
    40   24   25 1    
    41   24   26 1    
    42   24   34 1    
    43   26   27 1    
    44   26   98 1    
    45   26   99 1    
    46   27   28 1    
    47   27  100 1    
    48   27  101 1    
    49   28   29 1    
    50   28  102 1    
    51   28  103 1    
    52   29   30 1    
    53   29   31 am   BACKBONE|DICT|INTERRES
    54   30  151 nc   
    55   31   32 2    
    56   31   33 1    
    57   32  151 nc   
    58   33  104 1    
    59   33  105 1    
    60   33  106 1    
    61   34   35 am   BACKBONE|DICT|INTERRES
    62   34  107 1    
    63   35   36 2    
    64   35   37 1    
    65   37   38 1    
    66   37   39 1    
    67   37   44 1    
    68   39   40 1    
    69   39  108 1    
    70   39  109 1    
    71   40   41 1    
    72   40  110 1    
    73   40  111 1    
    74   41   42 2    
    75   41   43 am   BACKBONE|DICT|INTERRES
    76   43  112 1    
    77   43  113 1    
    78   44   45 am   BACKBONE|DICT|INTERRES
    79   44  114 1    
    80   45   46 2    
    81   45   47 1    
    82   47   48 1    
    83   47   49 1    
    84   47   51 1    
    85   49   50 1    
    86   49  115 1    
    87   49  116 1    
    88   50  117 1    
    89   51   52 am   BACKBONE|DICT|INTERRES
    90   51  118 1    
    91   52   53 2    
    92   52   54 1    
    93   54   55 1    
    94   54   56 1    
    95   54   58 1    
    96   56   57 1    
    97   56  119 1    
    98   56  120 1    
    99   57  121 1    
   100   58   59 am   BACKBONE|DICT|INTERRES
   101   58  122 1    
   102   59   60 2    
   103   59   61 1    
   104   61   62 1    
   105   61   68 1    
   106   61   63 1    
   107   63   64 1    
   108   63   65 1    
   109   63  152 1    
   110   64  151 nc   
   111   65   66 1    
   112   65   67 2    
   113   66  151 nc   
   114   68   69 am   BACKBONE|DICT|INTERRES
   115   68  123 1    
   116   69   70 2    
   117   69   71 1    
   118   71   72 1    
   119   71  124 1    
   120   71  125 1    
   121   72   73 1    
   122   72  126 1    
   123   72  127 1    
   124   73   74 1    
   125   73  128 1    
   126   73  129 1    
   127   74   75 1    
   128   74  130 1    
   129   74  131 1    
   130   75   76 1    
   131   75  132 1    
   132   75  133 1    
   133   76   77 1    
   134   76  134 1    
   135   76  135 1    
   136   77   78 1    
   137   77  136 1    
   138   77  137 1    
   139   78   79 1    
   140   78  138 1    
   141   78  139 1    
   142   79   80 1    
   143   79  140 1    
   144   79  141 1    
   145   80   81 1    
   146   80  142 1    
   147   80  143 1    
   148   81   82 1    
   149   81  144 1    
   150   81  145 1    
   151   82   83 1    
   152   82  146 1    
   153   82  147 1    
   154   83  148 1    
   155   83  149 1    
   156   83  150 1    
@<TRIPOS>SUBSTRUCTURE
     1 UNK         1 GROUP             0       ****    0 ROOT    
@<TRIPOS>MOLECULE
079_c1
42   47    1
SMALL
USER_CHARGES


@<TRIPOS>ATOM
      1 O1          1.3291    0.8192    0.0639 O.co2     1 UNK         0.0000 
      2 C2          2.5167    0.8037    0.4282 C.2       1 UNK         0.0000 
      3 O3          2.9833    1.6332    1.2715 O.co2     1 UNK         0.0000 
      4 C4          3.4904   -0.1775   -0.2946 C.3       1 UNK         0.0000 
      5 C5          5.0256   -0.0801    0.0392 C.3       1 UNK         0.0000 
      6 O6          5.3403    1.2979   -0.0046 O.co2     1 UNK         0.0000 
      7 C7          5.2219   -0.6103    1.5357 C.2       1 UNK         0.0000 
      8 O8          5.7934   -1.6976    1.7433 O.co2     1 UNK         0.0000 
      9 O9          5.3281    0.3549    2.3507 O.co2     1 UNK         0.0000 
     10 C10         5.9014   -0.9226   -1.0005 C.3       1 UNK         0.0000 
     11 C11         7.3131   -0.4116   -1.4529 C.2       1 UNK         0.0000 
     12 O12         7.8332    0.6369   -0.9348 O.co2     1 UNK         0.0000 
     13 O13         7.9072   -1.0994   -2.3070 O.co2     1 UNK         0.0000 
     14 H14         3.3591    0.0213   -1.3561 H         1 UNK         0.0000 
     15 H15         3.1071   -1.1853   -0.1569 H         1 UNK         0.0000 
     16 H16         5.3300   -1.0895   -1.9178 H         1 UNK         0.0000 
     17 H17         6.0553   -1.9440   -0.6481 H         1 UNK         0.0000 
     18 O18         6.7968    3.7959    0.1504 O.co2     1 UNK         0.0000 
     19 O19         6.6867    5.9226    0.7823 O.co2     1 UNK         0.0000 
     20 C20         6.9332    4.7282    1.0044 C.2       1 UNK         0.0000 
     21 H21         6.6918    4.9260    4.4911 H         1 UNK         0.0000 
     22 H22         8.7492    3.8820    3.8892 H         1 UNK         0.0000 
     23 C23         7.0990    4.1196    2.4716 C.3       1 UNK         0.0000 
     24 C24         6.2410    4.9824    3.5013 C.3       1 UNK         0.0000 
     25 O25         4.2473    3.5860    3.1407 O.co2     1 UNK         0.0000 
     26 C26         8.6337    4.1999    2.8520 C.3       1 UNK         0.0000 
     27 C27         4.7340    4.6196    3.7078 C.2       1 UNK         0.0000 
     28 O28         6.6663    2.7650    2.5091 O.co2     1 UNK         0.0000 
     29 C29         9.6808    3.3668    2.0391 C.2       1 UNK         0.0000 
     30 O30        10.8633    3.4586    2.4061 O.co2     1 UNK         0.0000 
     31 O31         9.2800    2.5855    1.1212 O.co2     1 UNK         0.0000 
     32 O32         4.0688    5.3821    4.4317 O.co2     1 UNK         0.0000 
     33 H33         6.2833    6.0472    3.2737 H         1 UNK         0.0000 
     34 H34         8.9682    5.2411    2.8445 H         1 UNK         0.0000 
     35 Fe35        7.2969    1.8081    0.7681 Fe        1 UNK         0.0000 
     36 Fe36        5.0737    2.3563    1.5420 Fe        1 UNK         0.0000 
     37 O37         7.9751    0.0332    2.0284 O.3       1 UNK         0.0000 
     38 H38         8.2903   -0.0176    2.9887 H         1 UNK         0.0000 
     39 H39         7.5965   -0.8817    1.7823 H         1 UNK         0.0000 
     40 O40         4.1618    4.0221    0.2235 O.3       1 UNK         0.0000 
     41 H41         4.0861    4.9622    0.5936 H         1 UNK         0.0000 
     42 H42         3.7041    4.0011   -0.6739 H         1 UNK         0.0000 
@<TRIPOS>BOND
     1    1    2 2    
     2    2    3 1    
     3    2    4 1    
     4    3   36 nc   
     5    4    5 1    
     6    4   14 1    
     7    4   15 1    
     8    5    6 1    
     9    5    7 1    
    10    5   10 1    
    11    6   35 nc   
    12    7    8 2    
    13    7    9 1    
    14    9   36 nc   
    15   10   11 1    
    16   10   16 1    
    17   10   17 1    
    18   11   12 1    
    19   11   13 2    
    20   12   35 nc   
    21   18   20 1    
    22   18   35 nc   
    23   19   20 2    
    24   20   23 1    
    25   21   24 1    
    26   22   26 1    
    27   23   28 1    
    28   23   24 1    
    29   23   26 1    
    30   24   27 1    
    31   24   33 1    
    32   25   27 1    
    33   25   36 nc   
    34   26   34 1    
    35   26   29 1    
    36   27   32 2    
    37   28   35 nc   
    38   29   30 2    
    39   29   31 1    
    40   31   35 nc   
    41   35   37 nc   
    42   35   36 nc   
    43   36   40 nc   
    44   37   38 1    
    45   37   39 1    
    46   40   41 1    
    47   40   42 1    
@<TRIPOS>SUBSTRUCTURE
     1 UNK         1 GROUP             0       ****    0 ROOT    
@<TRIPOS>MOLECULE
081_c1
108   113    1
SMALL
USER_CHARGES


@<TRIPOS>ATOM
      1 O1         -2.2101   -6.4123  -20.4134 O.3       1 UNK         0.0000 
      2 C2         -3.5431   -6.3449  -19.9312 C.3       1 UNK         0.0000 
      3 C3         -3.6376   -5.3872  -18.7294 C.3       1 UNK         0.0000 
      4 C4         -2.8243   -5.7197  -17.4569 C.2       1 UNK         0.0000 
      5 C5         -2.1076   -7.0556  -17.3321 C.3       1 UNK         0.0000 
      6 C6         -2.6886   -4.8708  -16.4167 C.2       1 UNK         0.0000 
      7 C7         -3.3027   -3.5766  -16.3348 C.2       1 UNK         0.0000 
      8 O8         -4.5326   -3.4219  -16.4049 O.co2     1 UNK         0.0000 
      9 N9         -2.5282   -2.4931  -16.0565 N.am      1 UNK         0.0000 
     10 O10        -3.0389   -1.2760  -15.8372 O.co2     1 UNK         0.0000 
     11 C11        -1.1038   -2.5881  -15.6732 C.3       1 UNK         0.0000 
     12 C12        -0.9886   -2.6486  -14.1439 C.3       1 UNK         0.0000 
     13 C13         0.4343   -2.7776  -13.5727 C.3       1 UNK         0.0000 
     14 C14         0.4285   -2.7642  -12.0201 C.3       1 UNK         0.0000 
     15 H15         1.4672   -2.8014  -11.6872 H         1 UNK         0.0000 
     16 N16        -0.1492   -1.5309  -11.4281 N.am      1 UNK         0.0000 
     17 C17        -1.3444   -1.4716  -10.8156 C.2       1 UNK         0.0000 
     18 O18        -1.6575   -0.4342  -10.2410 O.2       1 UNK         0.0000 
     19 C19        -0.1481   -4.1110  -11.4655 C.2       1 UNK         0.0000 
     20 O20         0.4127   -5.1990  -11.5062 O.2       1 UNK         0.0000 
     21 N21        -1.3320   -4.0113  -10.8358 N.am      1 UNK         0.0000 
     22 C22        -2.1703   -2.7974  -10.9065 C.3       1 UNK         0.0000 
     23 H23        -2.5734   -2.8097  -11.9095 H         1 UNK         0.0000 
     24 C24        -3.3745   -2.8372   -9.9185 C.3       1 UNK         0.0000 
     25 C25        -4.5845   -1.8983  -10.1688 C.3       1 UNK         0.0000 
     26 C26        -5.4478   -2.2103  -11.4183 C.3       1 UNK         0.0000 
     27 N27        -4.9362   -1.6555  -12.6914 N.am      1 UNK         0.0000 
     28 O28        -4.4779   -2.5951  -13.5435 O.co2     1 UNK         0.0000 
     29 C29        -5.1881   -0.3679  -13.0846 C.2       1 UNK         0.0000 
     30 O30        -5.1050   -0.1181  -14.2889 O.co2     1 UNK         0.0000 
     31 C31        -5.6112    0.6519  -12.1405 C.2       1 UNK         0.0000 
     32 C32        -5.6485    1.9774  -12.4458 C.2       1 UNK         0.0000 
     33 C33        -5.1628    2.6028  -13.7619 C.3       1 UNK         0.0000 
     34 C34        -6.2093    2.9717  -11.4537 C.3       1 UNK         0.0000 
     35 C35        -7.6272    3.4659  -11.8166 C.3       1 UNK         0.0000 
     36 O36        -7.6963    4.1787  -13.0588 O.3       1 UNK         0.0000 
     37 C37        -8.3153    3.7752  -14.2225 C.2       1 UNK         0.0000 
     38 O38        -8.3160    4.5192  -15.2101 O.2       1 UNK         0.0000 
     39 C39        -9.0521    2.4218  -14.2636 C.3       1 UNK         0.0000 
     40 H40        -8.7162    1.7372  -13.4824 H         1 UNK         0.0000 
     41 N41       -10.4696    2.7986  -14.1191 N.am      1 UNK         0.0000 
     42 C42       -11.2902    2.4155  -13.1361 C.2       1 UNK         0.0000 
     43 O43       -10.9355    1.6851  -12.2239 O.2       1 UNK         0.0000 
     44 C44       -12.7198    2.9527  -13.1755 C.3       1 UNK         0.0000 
     45 C45        -8.8242    1.7033  -15.6281 C.3       1 UNK         0.0000 
     46 C46        -9.5767    0.3605  -15.8341 C.3       1 UNK         0.0000 
     47 C47        -8.8335   -0.9139  -15.3502 C.3       1 UNK         0.0000 
     48 N48        -7.4856   -1.2671  -15.8862 N.am      1 UNK         0.0000 
     49 O49        -6.8862   -2.1927  -15.1390 O.co2     1 UNK         0.0000 
     50 C50        -6.8658   -0.7371  -16.9740 C.2       1 UNK         0.0000 
     51 O51        -5.6263   -0.7829  -17.0163 O.co2     1 UNK         0.0000 
     52 C52        -7.6955   -0.3405  -18.0797 C.2       1 UNK         0.0000 
     53 C53        -7.5509    0.7417  -18.8848 C.2       1 UNK         0.0000 
     54 C54        -8.6223    0.9673  -19.9470 C.3       1 UNK         0.0000 
     55 C55        -6.4162    1.7822  -18.8037 C.3       1 UNK         0.0000 
     56 C56        -6.5550    2.9969  -19.7534 C.3       1 UNK         0.0000 
     57 O57        -5.4868    3.9102  -19.5918 O.3       1 UNK         0.0000 
     58 H58        -2.0368   -7.2858  -20.7745 H         1 UNK         0.0000 
     59 H59        -4.1828   -6.0025  -20.7460 H         1 UNK         0.0000 
     60 H60        -3.9151   -7.3338  -19.6575 H         1 UNK         0.0000 
     61 H61        -4.6874   -5.2988  -18.4479 H         1 UNK         0.0000 
     62 H62        -3.3575   -4.3877  -19.0702 H         1 UNK         0.0000 
     63 H63        -2.2500   -7.7147  -18.1821 H         1 UNK         0.0000 
     64 H64        -2.4574   -7.5692  -16.4346 H         1 UNK         0.0000 
     65 H65        -1.0395   -6.8530  -17.2338 H         1 UNK         0.0000 
     66 H66        -2.0897   -5.1135  -15.5497 H         1 UNK         0.0000 
     67 H67        -0.5823   -3.4473  -16.1045 H         1 UNK         0.0000 
     68 H68        -0.5530   -1.7262  -16.0611 H         1 UNK         0.0000 
     69 H69        -1.5794   -3.4952  -13.7850 H         1 UNK         0.0000 
     70 H70        -1.4506   -1.7468  -13.7332 H         1 UNK         0.0000 
     71 H71         1.0365   -1.9338  -13.9111 H         1 UNK         0.0000 
     72 H72         0.9435   -3.6673  -13.9556 H         1 UNK         0.0000 
     73 H73         0.3709   -0.6708  -11.4068 H         1 UNK         0.0000 
     74 H74        -1.6777   -4.8560  -10.4148 H         1 UNK         0.0000 
     75 H75        -2.9917   -2.6628   -8.9102 H         1 UNK         0.0000 
     76 H76        -3.7508   -3.8621   -9.9117 H         1 UNK         0.0000 
     77 H77        -5.2361   -2.0072   -9.3030 H         1 UNK         0.0000 
     78 H78        -4.2533   -0.8573  -10.1644 H         1 UNK         0.0000 
     79 H79        -6.4751   -1.8807  -11.2373 H         1 UNK         0.0000 
     80 H80        -5.5629   -3.2932  -11.4978 H         1 UNK         0.0000 
     81 H81        -5.9398    0.3044  -11.1699 H         1 UNK         0.0000 
     82 H82        -4.1356    2.3129  -13.9903 H         1 UNK         0.0000 
     83 H83        -5.1972    3.6920  -13.7670 H         1 UNK         0.0000 
     84 H84        -5.7938    2.2774  -14.5889 H         1 UNK         0.0000 
     85 H85        -5.5131    3.8044  -11.3603 H         1 UNK         0.0000 
     86 H86        -6.2304    2.5243  -10.4634 H         1 UNK         0.0000 
     87 H87        -7.8967    4.2011  -11.0609 H         1 UNK         0.0000 
     88 H88        -8.3682    2.6727  -11.6955 H         1 UNK         0.0000 
     89 H89       -10.8244    3.3477  -14.8864 H         1 UNK         0.0000 
     90 H90       -12.9217    3.5753  -14.0458 H         1 UNK         0.0000 
     91 H91       -12.8883    3.5509  -12.2820 H         1 UNK         0.0000 
     92 H92       -13.4324    2.1291  -13.1667 H         1 UNK         0.0000 
     93 H93        -7.7478    1.5732  -15.7621 H         1 UNK         0.0000 
     94 H94        -9.1334    2.3659  -16.4411 H         1 UNK         0.0000 
     95 H95        -9.8575    0.2490  -16.8774 H         1 UNK         0.0000 
     96 H96       -10.5422    0.3900  -15.3331 H         1 UNK         0.0000 
     97 H97        -8.7254   -0.7964  -14.2691 H         1 UNK         0.0000 
     98 H98        -9.4837   -1.7761  -15.5025 H         1 UNK         0.0000 
     99 H99        -8.5271   -1.0206  -18.2110 H         1 UNK         0.0000 
    100 H100       -9.3838    0.1856  -19.9134 H         1 UNK         0.0000 
    101 H101       -8.1801    0.9563  -20.9419 H         1 UNK         0.0000 
    102 H102       -9.1308    1.9155  -19.7727 H         1 UNK         0.0000 
    103 H103       -6.3334    2.1510  -17.7795 H         1 UNK         0.0000 
    104 H104       -5.4669    1.2846  -19.0120 H         1 UNK         0.0000 
    105 H105       -7.4905    3.5296  -19.5647 H         1 UNK         0.0000 
    106 H106       -6.5776    2.6743  -20.7982 H         1 UNK         0.0000 
    107 H107       -5.6525    4.6969  -20.1225 H         1 UNK         0.0000 
    108 Fe108      -4.9287   -1.7470  -15.3637 Fe        1 UNK         0.0000 
@<TRIPOS>BOND
     1    1    2 1    
     2    1   58 1    
     3    2    3 1    
     4    2   59 1    
     5    2   60 1    
     6    3    4 1    
     7    3   61 1    
     8    3   62 1    
     9    4    5 1    
    10    4    6 2    
    11    5   63 1    
    12    5   64 1    
    13    5   65 1    
    14    6    7 1    
    15    6   66 1    
    16    7    8 2    
    17    7    9 am   BACKBONE|DICT|INTERRES
    18    8  108 nc   
    19    9   10 1    
    20    9   11 1    
    21   10  108 nc   
    22   11   12 1    
    23   11   67 1    
    24   11   68 1    
    25   12   13 1    
    26   12   69 1    
    27   12   70 1    
    28   13   71 1    
    29   13   72 1    
    30   13   14 1    
    31   14   16 1    
    32   14   19 1    
    33   14   15 1    
    34   16   17 am   BACKBONE|DICT|INTERRES
    35   16   73 1    
    36   17   18 2    
    37   17   22 1    
    38   19   20 2    
    39   19   21 am   BACKBONE|DICT|INTERRES
    40   21   22 1    
    41   21   74 1    
    42   22   24 1    
    43   22   23 1    
    44   24   25 1    
    45   24   75 1    
    46   24   76 1    
    47   25   26 1    
    48   25   77 1    
    49   25   78 1    
    50   26   27 1    
    51   26   79 1    
    52   26   80 1    
    53   27   28 1    
    54   27   29 am   BACKBONE|DICT|INTERRES
    55   28  108 nc   
    56   29   30 2    
    57   29   31 1    
    58   30  108 nc   
    59   31   32 2    
    60   31   81 1    
    61   32   33 1    
    62   32   34 1    
    63   33   82 1    
    64   33   83 1    
    65   33   84 1    
    66   34   35 1    
    67   34   85 1    
    68   34   86 1    
    69   35   36 1    
    70   35   87 1    
    71   35   88 1    
    72   36   37 1    
    73   37   38 2    
    74   37   39 1    
    75   39   40 1    
    76   39   41 1    
    77   39   45 1    
    78   41   42 am   BACKBONE|DICT|INTERRES
    79   41   89 1    
    80   42   43 2    
    81   42   44 1    
    82   44   90 1    
    83   44   91 1    
    84   44   92 1    
    85   45   46 1    
    86   45   93 1    
    87   45   94 1    
    88   46   47 1    
    89   46   95 1    
    90   46   96 1    
    91   47   48 1    
    92   47   97 1    
    93   47   98 1    
    94   48   49 1    
    95   48   50 am   BACKBONE|DICT|INTERRES
    96   49  108 nc   
    97   50   51 2    
    98   50   52 1    
    99   51  108 nc   
   100   52   53 2    
   101   52   99 1    
   102   53   54 1    
   103   53   55 1    
   104   54  100 1    
   105   54  101 1    
   106   54  102 1    
   107   55   56 1    
   108   55  103 1    
   109   55  104 1    
   110   56   57 1    
   111   56  105 1    
   112   56  106 1    
   113   57  107 1    
@<TRIPOS>SUBSTRUCTURE
     1 UNK         1 GROUP             0       ****    0 ROOT    
@<TRIPOS>MOLECULE
083_c1
134   141    1
SMALL
USER_CHARGES


@<TRIPOS>ATOM
      1 C1        -12.4893   -5.4343    3.0053 C.3       1 UNK         0.0000 
      2 C2        -11.3560   -4.4895    2.5749 C.3       1 UNK         0.0000 
      3 C3        -11.5586   -3.0465    3.0800 C.3       1 UNK         0.0000 
      4 C4        -10.4850   -2.0490    2.5970 C.3       1 UNK         0.0000 
      5 C5         -9.0652   -2.3297    3.1437 C.3       1 UNK         0.0000 
      6 C6         -8.0117   -1.2721    2.7513 C.3       1 UNK         0.0000 
      7 C7         -7.7264   -1.2216    1.2284 C.3       1 UNK         0.0000 
      8 C8         -6.5916   -0.2643    0.8496 C.2       1 UNK         0.0000 
      9 O9         -5.4214   -0.5313    1.0953 O.2       1 UNK         0.0000 
     10 N10        -6.9343    0.8717    0.2319 N.am      1 UNK         0.0000 
     11 C11        -5.9853    1.9451   -0.1002 C.3       1 UNK         0.0000 
     12 H12        -5.0110    1.7449    0.3583 H         1 UNK         0.0000 
     13 C13        -6.4291    3.3279    0.4690 C.3       1 UNK         0.0000 
     14 H14        -5.6897    4.0754    0.1781 H         1 UNK         0.0000 
     15 O15        -7.6743    3.6968   -0.1120 O.3       1 UNK         0.0000 
     16 C16        -6.5473    3.2861    1.9916 C.ar      1 UNK         0.0000 
     17 C17        -7.6625    3.4246    2.8211 C.ar      1 UNK         0.0000 
     18 N18        -7.2102    3.2154    4.0958 N.pl3     1 UNK         0.0000 
     19 H19        -7.7540    3.2198    4.9549 H         1 UNK         0.0000 
     20 C20        -5.8687    2.9765    3.9645 C.ar      1 UNK         0.0000 
     21 N21        -5.4615    3.0406    2.7145 N.2       1 UNK         0.0000 
     22 C22        -5.7527    2.0065   -1.5942 C.2       1 UNK         0.0000 
     23 N23        -6.7589    2.3056   -2.4229 N.pl3     1 UNK         0.0000 
     24 H24        -7.6467    2.5430   -1.9837 H         1 UNK         0.0000 
     25 C25        -6.6378    2.3264   -3.8823 C.3       1 UNK         0.0000 
     26 C26        -5.2063    2.7953   -4.2178 C.3       1 UNK         0.0000 
     27 C27        -4.0570    2.0593   -3.4366 C.3       1 UNK         0.0000 
     28 H28        -3.7268    1.1471   -3.9358 H         1 UNK         0.0000 
     29 N29        -4.5330    1.7280   -2.0793 N.pl3     1 UNK         0.0000 
     30 C30        -2.8206    2.9774   -3.1979 C.2       1 UNK         0.0000 
     31 O31        -2.9728    4.1876   -3.0723 O.2       1 UNK         0.0000 
     32 N32        -1.6107    2.4215   -3.0117 N.am      1 UNK         0.0000 
     33 C33        -0.3199    3.1345   -2.9533 C.3       1 UNK         0.0000 
     34 H34        -0.1373    3.5058   -3.9651 H         1 UNK         0.0000 
     35 C35        -0.1979    4.3260   -1.9451 C.3       1 UNK         0.0000 
     36 C36        -0.0732    4.0171   -0.4246 C.3       1 UNK         0.0000 
     37 N37        -1.2657    3.2138    0.1014 N.4       1 UNK         0.0000 
     38 H38        -1.2522    2.2937   -0.3196 H         1 UNK         0.0000 
     39 H39        -1.1947    3.0979    1.1054 H         1 UNK         0.0000 
     40 H40        -2.1259    3.7019   -0.1068 H         1 UNK         0.0000 
     41 C41         0.7505    2.1040   -2.5964 C.2       1 UNK         0.0000 
     42 O42         0.4008    1.1414   -1.9140 O.2       1 UNK         0.0000 
     43 N43         1.9970    2.4017   -2.9589 N.am      1 UNK         0.0000 
     44 C44         3.1668    1.5413   -2.7689 C.3       1 UNK         0.0000 
     45 H45         2.8684    0.5217   -2.5182 H         1 UNK         0.0000 
     46 C46         3.9378    1.5365   -4.1108 C.3       1 UNK         0.0000 
     47 O47         3.0760    1.0860   -5.1398 O.3       1 UNK         0.0000 
     48 C48         4.0912    2.0162   -1.6257 C.2       1 UNK         0.0000 
     49 O49         5.1911    1.4599   -1.5192 O.co2     1 UNK         0.0000 
     50 N50         3.6578    3.0453   -0.8727 N.am      1 UNK         0.0000 
     51 C51         4.3005    3.7807    0.2438 C.3       1 UNK         0.0000 
     52 H52         3.7173    4.7060    0.1813 H         1 UNK         0.0000 
     53 C53         5.7427    4.4246   -0.0704 C.3       1 UNK         0.0000 
     54 O54         6.6991    3.6354   -0.7766 O.co2     1 UNK         0.0000 
     55 C55         3.6867    3.3186    1.6471 C.2       1 UNK         0.0000 
     56 O56         2.4953    3.6271    1.7655 O.2       1 UNK         0.0000 
     57 N57         4.1920    2.5813    2.6893 N.am      1 UNK         0.0000 
     58 C58         5.4948    1.9020    3.0852 C.3       1 UNK         0.0000 
     59 H59         5.3129    1.4248    4.0493 H         1 UNK         0.0000 
     60 C60         6.0446    0.7822    2.1248 C.3       1 UNK         0.0000 
     61 H61         6.9253    0.3090    2.5642 H         1 UNK         0.0000 
     62 C62         5.4140   -0.2764    1.2042 C.2       1 UNK         0.0000 
     63 O63         4.2779   -0.7328    1.4368 O.co2     1 UNK         0.0000 
     64 O64         6.1498   -0.3980    0.1433 O.co2     1 UNK         0.0000 
     65 O65         6.2903    1.8286    1.2664 O.co2     1 UNK         0.0000 
     66 C66         6.6999    2.9490    3.3137 C.2       1 UNK         0.0000 
     67 N67         6.3868    4.2123    3.6161 N.pl3     1 UNK         0.0000 
     68 H68         5.3893    4.3988    3.6276 H         1 UNK         0.0000 
     69 C69         7.3441    5.3185    3.8484 C.3       1 UNK         0.0000 
     70 C70         8.7286    5.0641    3.1627 C.3       1 UNK         0.0000 
     71 C71         8.9770    3.6407    2.5510 C.3       1 UNK         0.0000 
     72 H72         8.6904    3.7042    1.5140 H         1 UNK         0.0000 
     73 N73         8.0459    2.6802    3.1794 N.pl3     1 UNK         0.0000 
     74 C74        10.4537    3.0988    2.6540 C.2       1 UNK         0.0000 
     75 O75        11.0351    3.2950    3.7187 O.2       1 UNK         0.0000 
     76 N76        11.1847    2.4370    1.6936 N.am      1 UNK         0.0000 
     77 C77        11.0731    1.8657    0.2845 C.3       1 UNK         0.0000 
     78 H78        11.7721    2.4301   -0.3320 H         1 UNK         0.0000 
     79 C79        11.6422    0.4186    0.3578 C.2       1 UNK         0.0000 
     80 O80        11.0211   -0.6415    0.2106 O.2       1 UNK         0.0000 
     81 C81        13.1118    0.2607    0.7165 C.3       1 UNK         0.0000 
     82 C82         9.6922    2.0177   -0.4406 C.3       1 UNK         0.0000 
     83 H83         9.5640    3.0919   -0.6192 H         1 UNK         0.0000 
     84 C84         9.4090    1.4333   -1.8704 C.2       1 UNK         0.0000 
     85 O85        10.3581    1.4108   -2.6880 O.co2     1 UNK         0.0000 
     86 O86         8.1693    1.1585   -2.0935 O.co2     1 UNK         0.0000 
     87 O87         8.7677    1.4785    0.4601 O.co2     1 UNK         0.0000 
     88 H88       -12.5723   -5.4885    4.0914 H         1 UNK         0.0000 
     89 H89       -12.3160   -6.4469    2.6401 H         1 UNK         0.0000 
     90 H90       -13.4528   -5.1060    2.6142 H         1 UNK         0.0000 
     91 H91       -10.4091   -4.8851    2.9432 H         1 UNK         0.0000 
     92 H92       -11.2814   -4.4924    1.4857 H         1 UNK         0.0000 
     93 H93       -11.6000   -3.0403    4.1714 H         1 UNK         0.0000 
     94 H94       -12.5362   -2.6910    2.7467 H         1 UNK         0.0000 
     95 H95       -10.4764   -2.0469    1.5069 H         1 UNK         0.0000 
     96 H96       -10.7887   -1.0435    2.8952 H         1 UNK         0.0000 
     97 H97        -8.7243   -3.3109    2.8090 H         1 UNK         0.0000 
     98 H98        -9.1127   -2.3940    4.2329 H         1 UNK         0.0000 
     99 H99        -7.0878   -1.4994    3.2895 H         1 UNK         0.0000 
    100 H100       -8.3358   -0.2939    3.1154 H         1 UNK         0.0000 
    101 H101       -7.4442   -2.2132    0.8717 H         1 UNK         0.0000 
    102 H102       -8.6309   -0.9479    0.6878 H         1 UNK         0.0000 
    103 H103       -7.9172    1.0629    0.1216 H         1 UNK         0.0000 
    104 H104       -7.9755    4.5044    0.3296 H         1 UNK         0.0000 
    105 H105       -8.7106    3.6165    2.6259 H         1 UNK         0.0000 
    106 H106       -5.2716    2.7602    4.8428 H         1 UNK         0.0000 
    107 H107       -7.3949    2.9931   -4.2961 H         1 UNK         0.0000 
    108 H108       -6.8338    1.3180   -4.2541 H         1 UNK         0.0000 
    109 H109       -5.2003    3.8697   -4.0135 H         1 UNK         0.0000 
    110 H110       -5.0416    2.7221   -5.2941 H         1 UNK         0.0000 
    111 H111       -3.8929    1.2614   -1.4474 H         1 UNK         0.0000 
    112 H112       -1.4669    1.4158   -3.0693 H         1 UNK         0.0000 
    113 H113       -0.9599    5.0867   -2.1119 H         1 UNK         0.0000 
    114 H114        0.7124    4.8588   -2.2250 H         1 UNK         0.0000 
    115 H115       -0.0562    4.9253    0.1795 H         1 UNK         0.0000 
    116 H116        0.8037    3.4251   -0.1629 H         1 UNK         0.0000 
    117 H117        2.1782    3.1654   -3.5936 H         1 UNK         0.0000 
    118 H118        4.8084    0.8799   -4.0667 H         1 UNK         0.0000 
    119 H119        4.3177    2.5309   -4.3588 H         1 UNK         0.0000 
    120 H120        3.3274    0.1784   -5.3518 H         1 UNK         0.0000 
    121 H121        2.7545    3.3963   -1.0934 H         1 UNK         0.0000 
    122 H122        6.1391    4.8123    0.8719 H         1 UNK         0.0000 
    123 H123        5.5649    5.3603   -0.6016 H         1 UNK         0.0000 
    124 H124        3.4411    2.2567    3.2758 H         1 UNK         0.0000 
    125 H125        7.4701    5.4091    4.9302 H         1 UNK         0.0000 
    126 H126        6.8928    6.2522    3.4999 H         1 UNK         0.0000 
    127 H127        9.5166    5.3540    3.8632 H         1 UNK         0.0000 
    128 H128        8.8401    5.7829    2.3449 H         1 UNK         0.0000 
    129 H129        8.1709    1.7369    2.8054 H         1 UNK         0.0000 
    130 H130       12.1153    2.2840    2.0343 H         1 UNK         0.0000 
    131 H131       13.6050   -0.2872   -0.0871 H         1 UNK         0.0000 
    132 H132       13.1836   -0.3314    1.6300 H         1 UNK         0.0000 
    133 H133       13.6028    1.2178    0.8590 H         1 UNK         0.0000 
    134 Fe134       6.9306    1.5117   -0.4707 Fe        1 UNK         0.0000 
@<TRIPOS>BOND
     1    1    2 1    
     2    1   88 1    
     3    1   89 1    
     4    1   90 1    
     5    2    3 1    
     6    2   91 1    
     7    2   92 1    
     8    3    4 1    
     9    3   93 1    
    10    3   94 1    
    11    4    5 1    
    12    4   95 1    
    13    4   96 1    
    14    5    6 1    
    15    5   97 1    
    16    5   98 1    
    17    6    7 1    
    18    6   99 1    
    19    6  100 1    
    20    7    8 1    
    21    7  101 1    
    22    7  102 1    
    23    8    9 2    
    24    8   10 am   BACKBONE|DICT|INTERRES
    25   10  103 1    
    26   10   11 1    
    27   11   13 1    
    28   11   22 1    
    29   11   12 1    
    30   13   14 1    
    31   13   15 1    
    32   13   16 1    
    33   15  104 1    
    34   16   17 ar   
    35   16   21 ar   
    36   17   18 ar   
    37   17  105 1    
    38   18   19 1    
    39   18   20 ar   
    40   20   21 ar   
    41   20  106 1    
    42   22   23 2    
    43   22   29 1    
    44   23   24 1    
    45   23   25 1    
    46   25   26 1    
    47   25  107 1    
    48   25  108 1    
    49   26   27 1    
    50   26  109 1    
    51   26  110 1    
    52   27   29 1    
    53   27   30 1    
    54   27   28 1    
    55   29  111 1    
    56   30   31 2    
    57   30   32 am   BACKBONE|DICT|INTERRES
    58   32   33 1    
    59   32  112 1    
    60   33   34 1    
    61   33   35 1    
    62   33   41 1    
    63   35   36 1    
    64   35  113 1    
    65   35  114 1    
    66   36   37 1    
    67   36  115 1    
    68   36  116 1    
    69   37   38 1    
    70   37   39 1    
    71   37   40 1    
    72   41   42 2    
    73   41   43 am   BACKBONE|DICT|INTERRES
    74   43   44 1    
    75   43  117 1    
    76   44   45 1    
    77   44   46 1    
    78   44   48 1    
    79   46   47 1    
    80   46  118 1    
    81   46  119 1    
    82   47  120 1    
    83   48   49 2    
    84   48   50 am   BACKBONE|DICT|INTERRES
    85   49  134 nc   
    86   50   51 1    
    87   50  121 1    
    88   51   52 1    
    89   51   53 1    
    90   51   55 1    
    91   53   54 1    
    92   53  122 1    
    93   53  123 1    
    94   54  134 nc   
    95   55   56 2    
    96   55   57 am   BACKBONE|DICT|INTERRES
    97   57  124 1    
    98   57   58 1    
    99   58   60 1    
   100   58   66 1    
   101   58   59 1    
   102   60   61 1    
   103   60   62 1    
   104   60   65 1    
   105   62   63 2    
   106   62   64 1    
   107   64  134 nc   
   108   65  134 nc   
   109   66   67 2    
   110   66   73 1    
   111   67   68 1    
   112   67   69 1    
   113   69   70 1    
   114   69  125 1    
   115   69  126 1    
   116   70   71 1    
   117   70  127 1    
   118   70  128 1    
   119   71   73 1    
   120   71   74 1    
   121   71   72 1    
   122   73  129 1    
   123   74   75 2    
   124   74   76 am   BACKBONE|DICT|INTERRES
   125   76   77 1    
   126   76  130 1    
   127   77   78 1    
   128   77   79 1    
   129   77   82 1    
   130   79   80 2    
   131   79   81 1    
   132   81  131 1    
   133   81  132 1    
   134   81  133 1    
   135   82   83 1    
   136   82   84 1    
   137   82   87 1    
   138   84   85 2    
   139   84   86 1    
   140   86  134 nc   
   141   87  134 nc   
@<TRIPOS>SUBSTRUCTURE
     1 UNK         1 GROUP             0       ****    0 ROOT    
@<TRIPOS>MOLECULE
085_c1
54   58    1
SMALL
USER_CHARGES


@<TRIPOS>ATOM
      1 O1         -4.0521   -3.5950    0.1000 O.co2     1 UNK         0.0000 
      2 C2         -4.5852   -2.4726    0.3105 C.2       1 UNK         0.0000 
      3 O3         -5.2861   -2.2615    1.3269 O.co2     1 UNK         0.0000 
      4 C4         -4.7410   -1.4761   -0.8767 C.3       1 UNK         0.0000 
      5 C5         -3.6407   -0.3686   -1.2094 C.3       1 UNK         0.0000 
      6 C6         -3.5270    0.6840   -0.0090 C.2       1 UNK         0.0000 
      7 O7         -2.3560    0.9153    0.4209 O.co2     1 UNK         0.0000 
      8 O8         -4.5596    1.3228    0.3371 O.co2     1 UNK         0.0000 
      9 O9         -2.3947   -1.0166   -1.4692 O.co2     1 UNK         0.0000 
     10 C10        -4.2137    0.4654   -2.4541 C.3       1 UNK         0.0000 
     11 C11        -3.4397    1.6840   -3.0665 C.2       1 UNK         0.0000 
     12 O12        -3.5789    2.8434   -2.6632 O.2       1 UNK         0.0000 
     13 N13        -2.7031    1.4213   -4.1703 N.am      1 UNK         0.0000 
     14 C14        -1.2359    1.6209   -4.3273 C.3       1 UNK         0.0000 
     15 H15        -1.0041    1.2573   -5.3313 H         1 UNK         0.0000 
     16 C16        -0.6170    0.5797   -3.3427 C.2       1 UNK         0.0000 
     17 O17        -0.1140   -0.3914   -3.9554 O.co2     1 UNK         0.0000 
     18 O18        -0.5959    0.9984   -2.1254 O.co2     1 UNK         0.0000 
     19 C19        -0.5976    3.0737   -4.2622 C.3       1 UNK         0.0000 
     20 C20         0.9691    3.1857   -4.5729 C.3       1 UNK         0.0000 
     21 C21         1.8240    2.1958   -3.7270 C.3       1 UNK         0.0000 
     22 C22         3.3477    2.0368   -3.6339 C.3       1 UNK         0.0000 
     23 N23         3.5581    0.8468   -2.7644 N.am      1 UNK         0.0000 
     24 C24         3.7210    0.9030   -1.4290 C.2       1 UNK         0.0000 
     25 O25         4.1132    1.9438   -0.8912 O.2       1 UNK         0.0000 
     26 C26         3.4372   -0.3953   -0.5979 C.3       1 UNK         0.0000 
     27 C27         1.9880   -0.6100   -0.0058 C.3       1 UNK         0.0000 
     28 C28         1.6219    0.6752    0.8776 C.2       1 UNK         0.0000 
     29 O29         0.4471    1.1190    0.6884 O.co2     1 UNK         0.0000 
     30 O30         2.4291    1.1001    1.7408 O.co2     1 UNK         0.0000 
     31 O31         1.0571   -0.8963   -1.0341 O.co2     1 UNK         0.0000 
     32 C32         1.8172   -1.8592    0.9667 C.3       1 UNK         0.0000 
     33 C33         0.4147   -2.1107    1.6296 C.2       1 UNK         0.0000 
     34 O34        -0.6283   -1.5128    1.1868 O.co2     1 UNK         0.0000 
     35 O35         0.4470   -2.9188    2.5959 O.co2     1 UNK         0.0000 
     36 H36        -4.8604   -2.1055   -1.7494 H         1 UNK         0.0000 
     37 H37        -5.6914   -0.9807   -0.6978 H         1 UNK         0.0000 
     38 H38        -4.3846   -0.2528   -3.2481 H         1 UNK         0.0000 
     39 H39        -5.2151    0.8209   -2.2040 H         1 UNK         0.0000 
     40 H40        -2.8898    0.4620   -4.4177 H         1 UNK         0.0000 
     41 H41        -0.7998    3.5079   -3.2796 H         1 UNK         0.0000 
     42 H42        -1.1475    3.7084   -4.9572 H         1 UNK         0.0000 
     43 H43         1.2994    4.2125   -4.3828 H         1 UNK         0.0000 
     44 H44         1.1516    3.0017   -5.6376 H         1 UNK         0.0000 
     45 H45         1.4566    2.2619   -2.6998 H         1 UNK         0.0000 
     46 H46         1.5928    1.2318   -4.1628 H         1 UNK         0.0000 
     47 H47         3.8042    2.9544   -3.2505 H         1 UNK         0.0000 
     48 H48         3.7804    1.8901   -4.6275 H         1 UNK         0.0000 
     49 H49         3.0807   -0.0103   -3.0237 H         1 UNK         0.0000 
     50 H50         4.1601   -0.4314    0.2112 H         1 UNK         0.0000 
     51 H51         3.6558   -1.2553   -1.2178 H         1 UNK         0.0000 
     52 H52         2.5113   -1.7899    1.7988 H         1 UNK         0.0000 
     53 H53         2.0452   -2.7750    0.4251 H         1 UNK         0.0000 
     54 Fe54       -0.7785   -0.1193   -0.3869 Fe        1 UNK         0.0000 
@<TRIPOS>BOND
     1    1    2 1    
     2    2    3 2    
     3    2    4 1    
     4    4   36 1    
     5    4   37 1    
     6    4    5 1    
     7    5    6 1    
     8    5    9 1    
     9    5   10 1    
    10    6    7 1    
    11    6    8 2    
    12    7   54 nc   
    13    9   54 nc   
    14   10   11 1    
    15   10   38 1    
    16   10   39 1    
    17   11   12 2    
    18   11   13 am   BACKBONE|DICT|INTERRES
    19   13   40 1    
    20   13   14 1    
    21   14   16 1    
    22   14   19 1    
    23   14   15 1    
    24   16   17 2    
    25   16   18 1    
    26   18   54 nc   
    27   19   20 1    
    28   19   41 1    
    29   19   42 1    
    30   20   21 1    
    31   20   43 1    
    32   20   44 1    
    33   21   22 1    
    34   21   45 1    
    35   21   46 1    
    36   22   23 1    
    37   22   47 1    
    38   22   48 1    
    39   23   24 am   BACKBONE|DICT|INTERRES
    40   23   49 1    
    41   24   25 2    
    42   24   26 1    
    43   26   27 1    
    44   26   50 1    
    45   26   51 1    
    46   27   28 1    
    47   27   31 1    
    48   27   32 1    
    49   28   29 2    
    50   28   30 1    
    51   29   54 nc   
    52   31   54 nc   
    53   32   33 1    
    54   32   52 1    
    55   32   53 1    
    56   33   34 1    
    57   33   35 2    
    58   34   54 nc   
@<TRIPOS>SUBSTRUCTURE
     1 UNK         1 GROUP             0       ****    0 ROOT    
@<TRIPOS>MOLECULE
089_c1
54   58    1
SMALL
USER_CHARGES


@<TRIPOS>ATOM
      1 C1         -0.1823    4.5510   -2.2903 C.3       1 UNK         0.0000 
      2 C2          0.0006    3.1954   -2.9318 C.2       1 UNK         0.0000 
      3 O3          1.0300    2.3961   -2.6058 O.co2     1 UNK         0.0000 
      4 N4         -0.9087    2.6407   -3.7548 N.am      1 UNK         0.0000 
      5 C5         -0.8942    1.3221   -4.4041 C.3       1 UNK         0.0000 
      6 C6         -2.2393    0.5557   -4.2914 C.3       1 UNK         0.0000 
      7 C7         -2.7521    0.2153   -2.8631 C.3       1 UNK         0.0000 
      8 N8         -1.9885   -0.8310   -2.1696 N.am      1 UNK         0.0000 
      9 C9         -1.1510   -0.5609   -1.1708 C.2       1 UNK         0.0000 
     10 O10        -0.0337   -0.0498   -1.6696 O.co2     1 UNK         0.0000 
     11 C11        -1.3770   -0.7333    0.3748 C.3       1 UNK         0.0000 
     12 C12        -0.7002    0.3196    1.3535 C.3       1 UNK         0.0000 
     13 C13        -1.3566    1.7581    1.1822 C.2       1 UNK         0.0000 
     14 O14        -0.7571    2.4644    0.0935 O.co2     1 UNK         0.0000 
     15 O15        -2.2805    2.1928    1.9018 O.co2     1 UNK         0.0000 
     16 O16         0.7132    0.3840    1.0184 O.co2     1 UNK         0.0000 
     17 C17        -0.6191   -0.1618    2.8618 C.3       1 UNK         0.0000 
     18 C18         0.3893   -1.3277    3.1737 C.2       1 UNK         0.0000 
     19 O19         0.0187   -2.4497    3.4897 O.2       1 UNK         0.0000 
     20 N20         1.6914   -1.0093    2.9961 N.am      1 UNK         0.0000 
     21 C21         2.8240   -1.8969    2.7449 C.3       1 UNK         0.0000 
     22 C22         3.2901   -1.8579    1.2508 C.3       1 UNK         0.0000 
     23 C23         4.1426   -0.6477    0.7447 C.3       1 UNK         0.0000 
     24 N24         3.4088    0.5234    0.2306 N.am      1 UNK         0.0000 
     25 O25         2.7947    0.3396   -1.0226 O.co2     1 UNK         0.0000 
     26 C26         3.4734    1.8311    0.6356 C.2       1 UNK         0.0000 
     27 O27         2.4804    2.6515    0.1238 O.co2     1 UNK         0.0000 
     28 C28         4.4196    2.3418    1.7210 C.3       1 UNK         0.0000 
     29 H29        -0.0803    5.3606   -3.0106 H         1 UNK         0.0000 
     30 H30         0.5576    4.6910   -1.4965 H         1 UNK         0.0000 
     31 H31        -1.1631    4.6123   -1.8051 H         1 UNK         0.0000 
     32 H32        -1.7441    3.1869   -3.9220 H         1 UNK         0.0000 
     33 H33        -0.1131    0.6975   -3.9807 H         1 UNK         0.0000 
     34 H34        -0.6193    1.4481   -5.4571 H         1 UNK         0.0000 
     35 H35        -2.9939    1.1334   -4.8155 H         1 UNK         0.0000 
     36 H36        -2.1403   -0.3675   -4.8627 H         1 UNK         0.0000 
     37 H37        -3.7841   -0.1155   -2.9423 H         1 UNK         0.0000 
     38 H38        -2.7709    1.1283   -2.2733 H         1 UNK         0.0000 
     39 H39        -1.7409   -1.6219   -2.7478 H         1 UNK         0.0000 
     40 H40        -1.0774   -1.7503    0.6458 H         1 UNK         0.0000 
     41 H41        -2.4491   -0.6656    0.5508 H         1 UNK         0.0000 
     42 H42        -1.6127   -0.4372    3.2087 H         1 UNK         0.0000 
     43 H43        -0.3086    0.6623    3.5005 H         1 UNK         0.0000 
     44 H44         1.7048   -0.1239    2.4963 H         1 UNK         0.0000 
     45 H45         2.5985   -2.9242    3.0501 H         1 UNK         0.0000 
     46 H46         3.6382   -1.5527    3.3826 H         1 UNK         0.0000 
     47 H47         2.4452   -2.0374    0.5799 H         1 UNK         0.0000 
     48 H48         3.9162   -2.7358    1.1401 H         1 UNK         0.0000 
     49 H49         4.8585   -0.3605    1.5126 H         1 UNK         0.0000 
     50 H50         4.7699   -1.0030   -0.0722 H         1 UNK         0.0000 
     51 H51         5.4572    2.3644    1.3910 H         1 UNK         0.0000 
     52 H52         4.3402    1.7098    2.6049 H         1 UNK         0.0000 
     53 H53         4.1538    3.3524    2.0225 H         1 UNK         0.0000 
     54 Fe54        1.0239    1.4218   -0.7226 Fe        1 UNK         0.0000 
@<TRIPOS>BOND
     1    1    2 1    
     2    1   29 1    
     3    1   30 1    
     4    1   31 1    
     5    2    3 2    
     6    2    4 am   BACKBONE|DICT|INTERRES
     7    3   54 nc   
     8    4    5 1    
     9    4   32 1    
    10    5    6 1    
    11    5   33 1    
    12    5   34 1    
    13    6    7 1    
    14    6   35 1    
    15    6   36 1    
    16    7    8 1    
    17    7   37 1    
    18    7   38 1    
    19    8    9 am   BACKBONE|DICT|INTERRES
    20    8   39 1    
    21    9   10 2    
    22    9   11 1    
    23   10   54 nc   
    24   11   12 1    
    25   11   40 1    
    26   11   41 1    
    27   12   13 1    
    28   12   16 1    
    29   12   17 1    
    30   13   14 1    
    31   13   15 2    
    32   14   54 nc   
    33   16   54 nc   
    34   17   18 1    
    35   17   42 1    
    36   17   43 1    
    37   18   19 2    
    38   18   20 am   BACKBONE|DICT|INTERRES
    39   20   21 1    
    40   20   44 1    
    41   21   22 1    
    42   21   45 1    
    43   21   46 1    
    44   22   23 1    
    45   22   47 1    
    46   22   48 1    
    47   23   24 1    
    48   23   49 1    
    49   23   50 1    
    50   24   25 1    
    51   24   26 am   BACKBONE|DICT|INTERRES
    52   25   54 nc   
    53   26   27 2    
    54   26   28 1    
    55   27   54 nc   
    56   28   51 1    
    57   28   52 1    
    58   28   53 1    
@<TRIPOS>SUBSTRUCTURE
     1 UNK         1 GROUP             0       ****    0 ROOT    
@<TRIPOS>MOLECULE
095_c1
90   94    1
SMALL
USER_CHARGES


@<TRIPOS>ATOM
      1 O1         -4.9377   -6.7184    9.9082 O.co2     1 UNK         0.0000 
      2 C2         -6.0849   -7.0219   10.3034 C.2       1 UNK         0.0000 
      3 C3         -7.1339   -7.3679    9.2449 C.3       1 UNK         0.0000 
      4 N4         -6.2719   -7.0619   11.6598 N.am      1 UNK         0.0000 
      5 O5         -5.2319   -7.1040   12.5136 O.co2     1 UNK         0.0000 
      6 C6         -7.5652   -7.0815   12.4134 C.3       1 UNK         0.0000 
      7 C7         -8.9009   -6.5129   11.8323 C.3       1 UNK         0.0000 
      8 C8         -9.3254   -5.1122   12.3334 C.3       1 UNK         0.0000 
      9 C9         -8.2345   -4.1056   11.9310 C.3       1 UNK         0.0000 
     10 C10        -8.4425   -2.5925   12.1898 C.3       1 UNK         0.0000 
     11 N11        -7.1953   -1.8829   11.8607 N.am      1 UNK         0.0000 
     12 C12        -6.7936   -1.8339   10.5928 C.2       1 UNK         0.0000 
     13 O13        -7.4202   -1.2476    9.7259 O.2       1 UNK         0.0000 
     14 C14        -5.6593   -2.7826   10.1905 C.3       1 UNK         0.0000 
     15 C15        -4.2944   -2.6047   10.9083 C.3       1 UNK         0.0000 
     16 C16        -3.6036   -3.9661   11.0044 C.2       1 UNK         0.0000 
     17 O17        -4.0266   -4.7754   11.8323 O.co2     1 UNK         0.0000 
     18 N18        -2.6709   -4.4237   10.1187 N.am      1 UNK         0.0000 
     19 O19        -2.2367   -5.6994   10.1404 O.co2     1 UNK         0.0000 
     20 C20        -1.9163   -3.5167    9.2183 C.3       1 UNK         0.0000 
     21 C21        -0.9660   -2.5435    9.9782 C.3       1 UNK         0.0000 
     22 C22        -0.0440   -3.2266   11.0079 C.3       1 UNK         0.0000 
     23 C23         1.0343   -4.1483   10.3817 C.3       1 UNK         0.0000 
     24 C24         2.0344   -4.7649   11.3940 C.3       1 UNK         0.0000 
     25 N25         1.4478   -5.7540   12.3200 N.am      1 UNK         0.0000 
     26 C26         0.7432   -5.4922   13.4246 C.2       1 UNK         0.0000 
     27 O27         0.5154   -4.3507   13.8182 O.2       1 UNK         0.0000 
     28 C28         0.2524   -6.6782   14.2703 C.3       1 UNK         0.0000 
     29 C29        -0.2604   -7.9545   13.5235 C.3       1 UNK         0.0000 
     30 C30        -1.5750   -7.8052   12.7288 C.2       1 UNK         0.0000 
     31 O31        -2.2185   -6.7508   12.8148 O.co2     1 UNK         0.0000 
     32 N32        -2.0432   -8.7552   11.8421 N.am      1 UNK         0.0000 
     33 O33        -3.0372   -8.5099   10.9878 O.co2     1 UNK         0.0000 
     34 C34        -1.6462  -10.1706   11.7436 C.3       1 UNK         0.0000 
     35 C35        -0.7579  -10.8640   12.8005 C.3       1 UNK         0.0000 
     36 C36        -0.7548  -12.3612   12.4884 C.3       1 UNK         0.0000 
     37 C37         0.0392  -13.2237   13.4716 C.3       1 UNK         0.0000 
     38 C38         1.5801  -13.0690   13.3684 C.3       1 UNK         0.0000 
     39 N39         2.2839  -14.1167   14.1146 N.am      1 UNK         0.0000 
     40 C40         2.2835  -15.4156   13.7936 C.2       1 UNK         0.0000 
     41 O41         1.7132  -15.8691   12.8076 O.2       1 UNK         0.0000 
     42 C42         3.0396  -16.3774   14.7083 C.3       1 UNK         0.0000 
     43 H43        -6.6679   -7.9859    8.4746 H         1 UNK         0.0000 
     44 H44        -7.4795   -6.4497    8.7697 H         1 UNK         0.0000 
     45 H45        -7.9926   -7.9330    9.6115 H         1 UNK         0.0000 
     46 H46        -7.3984   -6.5734   13.3729 H         1 UNK         0.0000 
     47 H47        -7.7310   -8.1213   12.6925 H         1 UNK         0.0000 
     48 H48        -9.6878   -7.2321   12.0334 H         1 UNK         0.0000 
     49 H49        -8.8628   -6.4216   10.7566 H         1 UNK         0.0000 
     50 H50       -10.2685   -4.8382   11.8549 H         1 UNK         0.0000 
     51 H51        -9.5033   -5.0961   13.4140 H         1 UNK         0.0000 
     52 H52        -8.1158   -4.2376   10.8552 H         1 UNK         0.0000 
     53 H53        -7.2928   -4.4067   12.3959 H         1 UNK         0.0000 
     54 H54        -8.7274   -2.4111   13.2307 H         1 UNK         0.0000 
     55 H55        -9.2903   -2.2030   11.6087 H         1 UNK         0.0000 
     56 H56        -6.4556   -2.0221   12.5293 H         1 UNK         0.0000 
     57 H57        -5.5185   -2.6904    9.1173 H         1 UNK         0.0000 
     58 H58        -6.0509   -3.7871   10.3348 H         1 UNK         0.0000 
     59 H59        -4.3906   -2.2237   11.9301 H         1 UNK         0.0000 
     60 H60        -3.6743   -1.8839   10.3863 H         1 UNK         0.0000 
     61 H61        -1.2913   -4.1204    8.5543 H         1 UNK         0.0000 
     62 H62        -2.5856   -2.9776    8.5374 H         1 UNK         0.0000 
     63 H63        -1.5504   -1.8051   10.5189 H         1 UNK         0.0000 
     64 H64        -0.3833   -1.9622    9.2665 H         1 UNK         0.0000 
     65 H65        -0.6690   -3.8257   11.6803 H         1 UNK         0.0000 
     66 H66         0.4177   -2.4779   11.6602 H         1 UNK         0.0000 
     67 H67         1.6007   -3.5685    9.6492 H         1 UNK         0.0000 
     68 H68         0.5496   -4.9469    9.8128 H         1 UNK         0.0000 
     69 H69         2.8706   -5.2207   10.8580 H         1 UNK         0.0000 
     70 H70         2.4742   -3.9584   11.9932 H         1 UNK         0.0000 
     71 H71         1.6979   -6.7173   12.1655 H         1 UNK         0.0000 
     72 H72        -0.4704   -6.3576   15.0197 H         1 UNK         0.0000 
     73 H73         1.1154   -6.9637   14.8598 H         1 UNK         0.0000 
     74 H74        -0.5047   -8.6562   14.3166 H         1 UNK         0.0000 
     75 H75         0.5365   -8.4419   12.9559 H         1 UNK         0.0000 
     76 H76        -2.5824  -10.7494   11.7554 H         1 UNK         0.0000 
     77 H77        -1.2156  -10.3458   10.7483 H         1 UNK         0.0000 
     78 H78         0.2659  -10.5030   12.7412 H         1 UNK         0.0000 
     79 H79        -1.1461  -10.6926   13.8070 H         1 UNK         0.0000 
     80 H80        -0.3908  -12.5241   11.4664 H         1 UNK         0.0000 
     81 H81        -1.7848  -12.7284   12.4867 H         1 UNK         0.0000 
     82 H82        -0.2384  -14.2580   13.2460 H         1 UNK         0.0000 
     83 H83        -0.2957  -13.0403   14.4985 H         1 UNK         0.0000 
     84 H84         1.8920  -13.1060   12.3170 H         1 UNK         0.0000 
     85 H85         1.9000  -12.0761   13.7026 H         1 UNK         0.0000 
     86 H86         2.8098  -13.8403   14.9225 H         1 UNK         0.0000 
     87 H87         3.5419  -15.8802   15.5361 H         1 UNK         0.0000 
     88 H88         3.7795  -16.9152   14.1162 H         1 UNK         0.0000 
     89 H89         2.3378  -17.1064   15.1120 H         1 UNK         0.0000 
     90 Fe90       -3.6034   -6.6192   11.3529 Fe        1 UNK         0.0000 
@<TRIPOS>BOND
     1    1    2 2    
     2    1   90 nc   
     3    2    3 1    
     4    2    4 am   BACKBONE|DICT|INTERRES
     5    3   43 1    
     6    3   44 1    
     7    3   45 1    
     8    4    5 1    
     9    4    6 1    
    10    5   90 nc   
    11    6    7 1    
    12    6   46 1    
    13    6   47 1    
    14    7    8 1    
    15    7   48 1    
    16    7   49 1    
    17    8    9 1    
    18    8   50 1    
    19    8   51 1    
    20    9   10 1    
    21    9   52 1    
    22    9   53 1    
    23   10   11 1    
    24   10   54 1    
    25   10   55 1    
    26   11   12 am   BACKBONE|DICT|INTERRES
    27   11   56 1    
    28   12   13 2    
    29   12   14 1    
    30   14   15 1    
    31   14   57 1    
    32   14   58 1    
    33   15   16 1    
    34   15   59 1    
    35   15   60 1    
    36   16   17 2    
    37   16   18 am   BACKBONE|DICT|INTERRES
    38   17   90 nc   
    39   18   19 1    
    40   18   20 1    
    41   19   90 nc   
    42   20   21 1    
    43   20   61 1    
    44   20   62 1    
    45   21   22 1    
    46   21   63 1    
    47   21   64 1    
    48   22   23 1    
    49   22   65 1    
    50   22   66 1    
    51   23   24 1    
    52   23   67 1    
    53   23   68 1    
    54   24   25 1    
    55   24   69 1    
    56   24   70 1    
    57   25   26 am   BACKBONE|DICT|INTERRES
    58   25   71 1    
    59   26   27 2    
    60   26   28 1    
    61   28   29 1    
    62   28   72 1    
    63   28   73 1    
    64   29   30 1    
    65   29   74 1    
    66   29   75 1    
    67   30   31 2    
    68   30   32 am   BACKBONE|DICT|INTERRES
    69   31   90 nc   
    70   32   33 1    
    71   32   34 1    
    72   33   90 nc   
    73   34   35 1    
    74   34   76 1    
    75   34   77 1    
    76   35   36 1    
    77   35   78 1    
    78   35   79 1    
    79   36   37 1    
    80   36   80 1    
    81   36   81 1    
    82   37   38 1    
    83   37   82 1    
    84   37   83 1    
    85   38   39 1    
    86   38   84 1    
    87   38   85 1    
    88   39   40 am   BACKBONE|DICT|INTERRES
    89   39   86 1    
    90   40   41 2    
    91   40   42 1    
    92   42   87 1    
    93   42   88 1    
    94   42   89 1    
@<TRIPOS>SUBSTRUCTURE
     1 UNK         1 GROUP             0       ****    0 ROOT    
@<TRIPOS>MOLECULE
113_c1
102   108    1
SMALL
USER_CHARGES


@<TRIPOS>ATOM
      1 C1         -3.4868    3.3963    2.4252 C.ar      1 UNK         0.0000 
      2 C2         -2.9793    3.1647    3.6978 C.ar      1 UNK         0.0000 
      3 C3         -1.6932    2.6584    3.8571 C.ar      1 UNK         0.0000 
      4 C4         -0.9033    2.3935    2.7428 C.ar      1 UNK         0.0000 
      5 O5          0.3221    1.7999    2.9568 O.co2     1 UNK         0.0000 
      6 C6         -1.3915    2.6411    1.4225 C.ar      1 UNK         0.0000 
      7 O7         -0.5907    2.3296    0.2989 O.co2     1 UNK         0.0000 
      8 C8         -2.7140    3.1162    1.2906 C.ar      1 UNK         0.0000 
      9 C9         -3.4406    2.9977   -0.0075 C.2       1 UNK         0.0000 
     10 O10        -4.1869    3.8579   -0.4980 O.2       1 UNK         0.0000 
     11 N11        -3.3560    1.7329   -0.4049 N.am      1 UNK         0.0000 
     12 C12        -3.9452    0.9680   -1.4786 C.3       1 UNK         0.0000 
     13 H13        -4.9512    0.6812   -1.1542 H         1 UNK         0.0000 
     14 C14        -4.0528    1.8133   -2.7826 C.3       1 UNK         0.0000 
     15 C15        -4.4929    1.0223   -4.0265 C.3       1 UNK         0.0000 
     16 C16        -4.4038    1.8054   -5.3265 C.3       1 UNK         0.0000 
     17 N17        -4.8843    0.9667   -6.4367 N.pl3     1 UNK         0.0000 
     18 C18        -6.1461    0.5584   -6.6373 C.cat     1 UNK         0.0000 
     19 N19        -6.4295   -0.2684   -7.6546 N.pl3     1 UNK         0.0000 
     20 N20        -7.1279    0.9779   -5.8355 N.pl3     1 UNK         0.0000 
     21 H21        -6.8599    1.5246   -5.0225 H         1 UNK         0.0000 
     22 H22        -8.1052    0.7330   -5.9251 H         1 UNK         0.0000 
     23 C23        -3.1027   -0.3168   -1.6973 C.2       1 UNK         0.0000 
     24 O24        -3.6681   -1.2680   -2.2582 O.2       1 UNK         0.0000 
     25 N25        -1.8030   -0.3067   -1.3712 N.am      1 UNK         0.0000 
     26 C26        -0.8261   -1.3299   -1.7439 C.3       1 UNK         0.0000 
     27 H27        -1.3337   -2.2963   -1.8179 H         1 UNK         0.0000 
     28 C28         0.1556   -1.6073   -0.5680 C.2       1 UNK         0.0000 
     29 O29         0.2480   -0.7781    0.5560 O.co2     1 UNK         0.0000 
     30 O30         0.8091   -2.6472   -0.7743 O.co2     1 UNK         0.0000 
     31 C31        -0.0956   -1.0365   -3.0961 C.3       1 UNK         0.0000 
     32 H32         0.7838   -1.6713   -3.1695 H         1 UNK         0.0000 
     33 C33        -0.9872   -1.4176   -4.3029 C.3       1 UNK         0.0000 
     34 O34         0.2884    0.3464   -3.2475 O.3       1 UNK         0.0000 
     35 C35         1.3491    0.7115   -4.0380 C.2       1 UNK         0.0000 
     36 O36         1.1724    0.8806   -5.2651 O.2       1 UNK         0.0000 
     37 C37         2.7694    0.8366   -3.4014 C.3       1 UNK         0.0000 
     38 H38         3.4327    0.2785   -4.0590 H         1 UNK         0.0000 
     39 C39         2.9589    0.2402   -1.9575 C.3       1 UNK         0.0000 
     40 H40         2.4636   -0.7237   -1.8408 H         1 UNK         0.0000 
     41 O41         2.3903    1.2558   -1.1379 O.co2     1 UNK         0.0000 
     42 C42         4.4004    0.1284   -1.4719 C.3       1 UNK         0.0000 
     43 N43         3.3125    2.2070   -3.2842 N.am      1 UNK         0.0000 
     44 C44         2.9181    3.4484   -3.5477 C.2       1 UNK         0.0000 
     45 O45         2.1962    3.7817   -4.4972 O.2       1 UNK         0.0000 
     46 C46         3.5705    4.5485   -2.6578 C.3       1 UNK         0.0000 
     47 H47         2.8173    5.3122   -2.4747 H         1 UNK         0.0000 
     48 C48         4.8125    5.1371   -3.3872 C.3       1 UNK         0.0000 
     49 C49         4.6041    5.5773   -4.8364 C.3       1 UNK         0.0000 
     50 C50         3.4865    6.6204   -4.9260 C.3       1 UNK         0.0000 
     51 N51         3.1990    6.9244   -6.3228 N.pl3     1 UNK         0.0000 
     52 C52         2.4998    6.1776   -7.1840 C.cat     1 UNK         0.0000 
     53 N53         2.4198    6.5779   -8.4575 N.pl3     1 UNK         0.0000 
     54 N54         1.8944    5.0521   -6.7898 N.pl3     1 UNK         0.0000 
     55 H55         1.9925    4.6731   -5.8208 H         1 UNK         0.0000 
     56 H56         1.3483    4.4510   -7.3829 H         1 UNK         0.0000 
     57 N57         3.9371    4.0976   -1.3036 N.am      1 UNK         0.0000 
     58 C58         4.7826    4.5912   -0.3839 C.2       1 UNK         0.0000 
     59 O59         5.5119    5.5817   -0.5613 O.2       1 UNK         0.0000 
     60 C60         4.9712    3.6763    0.7947 C.ar      1 UNK         0.0000 
     61 C61         3.9047    2.8979    1.2728 C.ar      1 UNK         0.0000 
     62 O62         2.5703    3.2159    0.9936 O.co2     1 UNK         0.0000 
     63 C63         4.1897    1.7021    1.9974 C.ar      1 UNK         0.0000 
     64 O64         3.2380    0.6978    2.1154 O.co2     1 UNK         0.0000 
     65 C65         5.4911    1.4749    2.4410 C.ar      1 UNK         0.0000 
     66 C66         6.5237    2.3503    2.1120 C.ar      1 UNK         0.0000 
     67 C67         6.2728    3.4290    1.2648 C.ar      1 UNK         0.0000 
     68 H68        -4.5134    3.6989    2.3193 H         1 UNK         0.0000 
     69 H69        -3.6136    3.3045    4.5530 H         1 UNK         0.0000 
     70 H70        -1.2882    2.4174    4.8298 H         1 UNK         0.0000 
     71 H71        -2.5446    1.2834    0.0442 H         1 UNK         0.0000 
     72 H72        -3.0812    2.2838   -2.9610 H         1 UNK         0.0000 
     73 H73        -4.7620    2.6278   -2.6217 H         1 UNK         0.0000 
     74 H74        -5.4576    0.5375   -3.8793 H         1 UNK         0.0000 
     75 H75        -3.7962    0.2029   -4.1783 H         1 UNK         0.0000 
     76 H76        -3.3456    1.9809   -5.5184 H         1 UNK         0.0000 
     77 H77        -4.8710    2.7872   -5.2753 H         1 UNK         0.0000 
     78 H78        -4.1302    0.6028   -7.0112 H         1 UNK         0.0000 
     79 H79        -5.7174   -0.5848   -8.3003 H         1 UNK         0.0000 
     80 H80        -7.3690   -0.6066   -7.8422 H         1 UNK         0.0000 
     81 H81        -1.3846    0.3590   -0.7149 H         1 UNK         0.0000 
     82 H82        -1.3839   -2.4222   -4.1732 H         1 UNK         0.0000 
     83 H83        -0.4371   -1.3974   -5.2452 H         1 UNK         0.0000 
     84 H84        -1.8278   -0.7391   -4.4050 H         1 UNK         0.0000 
     85 H85         4.4320   -0.2682   -0.4566 H         1 UNK         0.0000 
     86 H86         4.9126    1.0918   -1.4395 H         1 UNK         0.0000 
     87 H87         4.9519   -0.5393   -2.1168 H         1 UNK         0.0000 
     88 H88         3.5109    2.1263   -2.2702 H         1 UNK         0.0000 
     89 H89         5.6223    4.4072   -3.3396 H         1 UNK         0.0000 
     90 H90         5.1497    6.0216   -2.8497 H         1 UNK         0.0000 
     91 H91         4.4425    4.7426   -5.5262 H         1 UNK         0.0000 
     92 H92         5.5413    6.0409   -5.1444 H         1 UNK         0.0000 
     93 H93         3.8942    7.5423   -4.5080 H         1 UNK         0.0000 
     94 H94         2.5854    6.4030   -4.3520 H         1 UNK         0.0000 
     95 H95         3.6326    7.7895   -6.6012 H         1 UNK         0.0000 
     96 H96         2.8952    7.4084   -8.7807 H         1 UNK         0.0000 
     97 H97         1.9141    6.0479   -9.1539 H         1 UNK         0.0000 
     98 H98         3.3252    3.3937   -0.8548 H         1 UNK         0.0000 
     99 H99         5.6806    0.5711    3.0000 H         1 UNK         0.0000 
    100 H100        7.5323    2.1315    2.4170 H         1 UNK         0.0000 
    101 H101        7.1036    4.0049    0.9000 H         1 UNK         0.0000 
    102 Fe102       1.3411    1.3323    0.9948 Fe        1 UNK         0.0000 
@<TRIPOS>BOND
     1    1    2 ar   
     2    1    8 ar   
     3    1   68 1    
     4    2    3 ar   
     5    2   69 1    
     6    3    4 ar   
     7    3   70 1    
     8    4    5 1    
     9    4    6 ar   
    10    5  102 nc   
    11    6    7 1    
    12    6    8 ar   
    13    7  102 nc   
    14    8    9 1    
    15    9   10 2    
    16    9   11 am   BACKBONE|DICT|INTERRES
    17   11   12 1    
    18   11   71 1    
    19   12   13 1    
    20   12   14 1    
    21   12   23 1    
    22   14   15 1    
    23   14   72 1    
    24   14   73 1    
    25   15   16 1    
    26   15   74 1    
    27   15   75 1    
    28   16   17 1    
    29   16   76 1    
    30   16   77 1    
    31   17   18 ar   
    32   17   78 1    
    33   18   19 ar   
    34   18   20 ar   
    35   19   79 1    
    36   19   80 1    
    37   20   21 1    
    38   20   22 1    
    39   23   24 2    
    40   23   25 am   BACKBONE|DICT|INTERRES
    41   25   81 1    
    42   25   26 1    
    43   26   28 1    
    44   26   31 1    
    45   26   27 1    
    46   28   29 1    
    47   28   30 2    
    48   29  102 nc   
    49   31   32 1    
    50   31   33 1    
    51   31   34 1    
    52   33   82 1    
    53   33   83 1    
    54   33   84 1    
    55   34   35 1    
    56   35   36 2    
    57   35   37 1    
    58   37   43 1    
    59   37   38 1    
    60   37   39 1    
    61   39   41 1    
    62   39   42 1    
    63   39   40 1    
    64   41  102 nc   
    65   42   85 1    
    66   42   86 1    
    67   42   87 1    
    68   43   44 am   BACKBONE|DICT|INTERRES
    69   43   88 1    
    70   44   45 2    
    71   44   46 1    
    72   46   48 1    
    73   46   57 1    
    74   46   47 1    
    75   48   49 1    
    76   48   89 1    
    77   48   90 1    
    78   49   50 1    
    79   49   91 1    
    80   49   92 1    
    81   50   51 1    
    82   50   93 1    
    83   50   94 1    
    84   51   52 ar   
    85   51   95 1    
    86   52   53 ar   
    87   52   54 ar   
    88   53   96 1    
    89   53   97 1    
    90   54   55 1    
    91   54   56 1    
    92   57   58 am   BACKBONE|DICT|INTERRES
    93   57   98 1    
    94   58   59 2    
    95   58   60 1    
    96   60   61 ar   
    97   60   67 ar   
    98   61   62 1    
    99   61   63 ar   
   100   62  102 nc   
   101   63   64 1    
   102   63   65 ar   
   103   64  102 nc   
   104   65   66 ar   
   105   65   99 1    
   106   66   67 ar   
   107   66  100 1    
   108   67  101 1    
@<TRIPOS>SUBSTRUCTURE
     1 UNK         1 GROUP             0       ****    0 ROOT    
@<TRIPOS>MOLECULE
114_c1
92   98    1
SMALL
USER_CHARGES


@<TRIPOS>ATOM
      1 C1          4.7801  -21.1373    9.7173 C.ar      1 UNK         0.0000 
      2 C2          5.6727  -22.1917    9.5235 C.ar      1 UNK         0.0000 
      3 C3          6.6156  -22.1148    8.5081 C.ar      1 UNK         0.0000 
      4 C4          6.7576  -20.9623    7.7537 C.ar      1 UNK         0.0000 
      5 O5          7.6056  -21.0449    6.8073 O.co2     1 UNK         0.0000 
      6 C6          5.9573  -19.8182    8.0493 C.ar      1 UNK         0.0000 
      7 O7          6.2282  -18.6526    7.5837 O.co2     1 UNK         0.0000 
      8 C8          4.8602  -19.9607    8.9548 C.ar      1 UNK         0.0000 
      9 C9          3.7705  -18.9113    9.1384 C.2       1 UNK         0.0000 
     10 O10         3.0824  -18.8529   10.1653 O.2       1 UNK         0.0000 
     11 N11         3.5517  -18.0759    8.1127 N.am      1 UNK         0.0000 
     12 C12         3.8818  -16.6591    8.2837 C.3       1 UNK         0.0000 
     13 H13         4.7508  -16.6516    8.9506 H         1 UNK         0.0000 
     14 C14         2.7138  -15.9243    8.9915 C.3       1 UNK         0.0000 
     15 C15         3.1361  -14.6836    9.8002 C.3       1 UNK         0.0000 
     16 C16         2.1289  -14.3171   10.9076 C.3       1 UNK         0.0000 
     17 C17         0.6711  -14.2177   10.4317 C.3       1 UNK         0.0000 
     18 N18         0.5607  -13.3681    9.2320 N.4       1 UNK         0.0000 
     19 H19         0.8603  -12.4281    9.4463 H         1 UNK         0.0000 
     20 H20         1.1684  -13.7511    8.5180 H         1 UNK         0.0000 
     21 H21        -0.3918  -13.3567    8.8961 H         1 UNK         0.0000 
     22 C22         4.4276  -15.9178    7.0232 C.2       1 UNK         0.0000 
     23 O23         4.9856  -14.8307    7.1996 O.2       1 UNK         0.0000 
     24 N24         4.3167  -16.4294    5.7957 N.am      1 UNK         0.0000 
     25 C25         3.0504  -16.8161    5.1356 C.3       1 UNK         0.0000 
     26 H26         2.2535  -16.8226    5.8811 H         1 UNK         0.0000 
     27 C27         3.0011  -18.2991    4.6049 C.2       1 UNK         0.0000 
     28 O28         3.9719  -19.0886    4.8433 O.co2     1 UNK         0.0000 
     29 O29         1.8449  -18.5687    4.1954 O.co2     1 UNK         0.0000 
     30 C30         2.5636  -15.7743    4.0561 C.3       1 UNK         0.0000 
     31 O31         3.4931  -15.5294    2.9937 O.3       1 UNK         0.0000 
     32 C32         4.5056  -14.5870    3.1018 C.2       1 UNK         0.0000 
     33 O33         4.3178  -13.5224    3.7061 O.2       1 UNK         0.0000 
     34 C34         5.8646  -14.9847    2.4189 C.3       1 UNK         0.0000 
     35 H35         5.8573  -14.7489    1.3521 H         1 UNK         0.0000 
     36 C36         6.2063  -16.5065    2.6595 C.3       1 UNK         0.0000 
     37 O37         6.4496  -16.7088    4.0285 O.co2     1 UNK         0.0000 
     38 N38         6.9724  -14.3001    3.1240 N.am      1 UNK         0.0000 
     39 C39         8.1127  -13.7639    2.6704 C.2       1 UNK         0.0000 
     40 O40         8.2006  -12.9950    1.7039 O.2       1 UNK         0.0000 
     41 C41         9.3927  -14.1648    3.4738 C.3       1 UNK         0.0000 
     42 H42        10.2255  -13.6629    2.9855 H         1 UNK         0.0000 
     43 C43         9.3784  -13.7728    4.9794 C.3       1 UNK         0.0000 
     44 C44         9.0015  -12.3113    5.2858 C.3       1 UNK         0.0000 
     45 C45         9.8578  -11.2495    4.5638 C.3       1 UNK         0.0000 
     46 C46        11.3701  -11.3558    4.8176 C.3       1 UNK         0.0000 
     47 N47        11.6611  -11.4760    6.2570 N.4       1 UNK         0.0000 
     48 H48        11.2569  -10.6929    6.7512 H         1 UNK         0.0000 
     49 H49        11.2451  -12.3378    6.5900 H         1 UNK         0.0000 
     50 H50        12.6593  -11.5019    6.4078 H         1 UNK         0.0000 
     51 N51         9.6606  -15.5957    3.3807 N.am      1 UNK         0.0000 
     52 C52        10.8233  -16.2448    3.2642 C.2       1 UNK         0.0000 
     53 O53        11.9201  -15.6755    3.2723 O.2       1 UNK         0.0000 
     54 C54        10.6098  -17.7056    2.8906 C.ar      1 UNK         0.0000 
     55 C55         9.5812  -18.5044    3.4723 C.ar      1 UNK         0.0000 
     56 O56         9.2172  -18.1879    4.6641 O.co2     1 UNK         0.0000 
     57 C57         9.0446  -19.6012    2.7175 C.ar      1 UNK         0.0000 
     58 O58         7.9926  -20.2927    2.9795 O.co2     1 UNK         0.0000 
     59 C59         9.6838  -19.9777    1.5441 C.ar      1 UNK         0.0000 
     60 C60        10.8413  -19.3425    1.1097 C.ar      1 UNK         0.0000 
     61 C61        11.2940  -18.2014    1.7707 C.ar      1 UNK         0.0000 
     62 H62         4.0021  -21.2387   10.4684 H         1 UNK         0.0000 
     63 H63         5.6211  -23.0860   10.1244 H         1 UNK         0.0000 
     64 H64         7.2620  -22.9611    8.3139 H         1 UNK         0.0000 
     65 H65         4.0118  -18.4388    7.2828 H         1 UNK         0.0000 
     66 H66         2.2511  -16.6087    9.7012 H         1 UNK         0.0000 
     67 H67         1.9346  -15.7011    8.2642 H         1 UNK         0.0000 
     68 H68         3.3084  -13.8446    9.1250 H         1 UNK         0.0000 
     69 H69         4.1060  -14.8747   10.2660 H         1 UNK         0.0000 
     70 H70         2.4370  -13.3821   11.3776 H         1 UNK         0.0000 
     71 H71         2.1951  -15.0696   11.6979 H         1 UNK         0.0000 
     72 H72         0.0401  -13.8279   11.2317 H         1 UNK         0.0000 
     73 H73         0.2893  -15.2135   10.1955 H         1 UNK         0.0000 
     74 H74         5.0771  -16.2230    5.1329 H         1 UNK         0.0000 
     75 H75         2.3083  -14.8422    4.5504 H         1 UNK         0.0000 
     76 H76         1.6404  -16.1288    3.5932 H         1 UNK         0.0000 
     77 H77         5.4010  -17.1276    2.2543 H         1 UNK         0.0000 
     78 H78         7.0613  -16.7720    2.0331 H         1 UNK         0.0000 
     79 H79         7.1211  -14.9616    3.8958 H         1 UNK         0.0000 
     80 H80        10.3540  -14.0076    5.4079 H         1 UNK         0.0000 
     81 H81         8.6865  -14.4293    5.5141 H         1 UNK         0.0000 
     82 H82         9.0123  -12.1571    6.3651 H         1 UNK         0.0000 
     83 H83         7.9568  -12.1676    5.0017 H         1 UNK         0.0000 
     84 H84         9.5003  -10.2582    4.8467 H         1 UNK         0.0000 
     85 H85         9.6767  -11.3107    3.4881 H         1 UNK         0.0000 
     86 H86        11.8761  -10.4790    4.4080 H         1 UNK         0.0000 
     87 H87        11.7841  -12.2258    4.3033 H         1 UNK         0.0000 
     88 H88         8.8941  -16.2601    3.5275 H         1 UNK         0.0000 
     89 H89         9.2821  -20.7956    0.9667 H         1 UNK         0.0000 
     90 H90        11.3363  -19.7015    0.2214 H         1 UNK         0.0000 
     91 H91        12.1287  -17.6460    1.3527 H         1 UNK         0.0000 
     92 Fe92        6.8481  -19.2232    5.1013 Fe        1 UNK         0.0000 
@<TRIPOS>BOND
     1    1    2 ar   
     2    1    8 ar   
     3    1   62 1    
     4    2    3 ar   
     5    2   63 1    
     6    3    4 ar   
     7    3   64 1    
     8    4    5 1    
     9    4    6 ar   
    10    5   92 nc   
    11    6    7 1    
    12    6    8 ar   
    13    7   92 nc   
    14    8    9 1    
    15    9   10 2    
    16    9   11 am   BACKBONE|DICT|INTERRES
    17   11   65 1    
    18   11   12 1    
    19   12   14 1    
    20   12   22 1    
    21   12   13 1    
    22   14   15 1    
    23   14   66 1    
    24   14   67 1    
    25   15   16 1    
    26   15   68 1    
    27   15   69 1    
    28   16   17 1    
    29   16   70 1    
    30   16   71 1    
    31   17   18 1    
    32   17   72 1    
    33   17   73 1    
    34   18   19 1    
    35   18   20 1    
    36   18   21 1    
    37   22   23 2    
    38   22   24 am   BACKBONE|DICT|INTERRES
    39   24   74 1    
    40   24   25 1    
    41   25   27 1    
    42   25   30 1    
    43   25   26 1    
    44   27   28 1    
    45   27   29 2    
    46   28   92 nc   
    47   30   31 1    
    48   30   75 1    
    49   30   76 1    
    50   31   32 1    
    51   32   33 2    
    52   32   34 1    
    53   34   36 1    
    54   34   38 1    
    55   34   35 1    
    56   36   37 1    
    57   36   77 1    
    58   36   78 1    
    59   37   92 nc   
    60   38   39 am   BACKBONE|DICT|INTERRES
    61   38   79 1    
    62   39   40 2    
    63   39   41 1    
    64   41   42 1    
    65   41   43 1    
    66   41   51 1    
    67   43   44 1    
    68   43   80 1    
    69   43   81 1    
    70   44   45 1    
    71   44   82 1    
    72   44   83 1    
    73   45   46 1    
    74   45   84 1    
    75   45   85 1    
    76   46   47 1    
    77   46   86 1    
    78   46   87 1    
    79   47   48 1    
    80   47   49 1    
    81   47   50 1    
    82   51   52 am   BACKBONE|DICT|INTERRES
    83   51   88 1    
    84   52   53 2    
    85   52   54 1    
    86   54   55 ar   
    87   54   61 ar   
    88   55   56 1    
    89   55   57 ar   
    90   56   92 nc   
    91   57   58 1    
    92   57   59 ar   
    93   58   92 nc   
    94   59   60 ar   
    95   59   89 1    
    96   60   61 ar   
    97   60   90 1    
    98   61   91 1    
@<TRIPOS>SUBSTRUCTURE
     1 UNK         1 GROUP             0       ****    0 ROOT    
@<TRIPOS>MOLECULE
115_c1
67   72    1
SMALL
USER_CHARGES


@<TRIPOS>ATOM
      1 O1          0.3080    0.3828   -9.5669 O.co2     1 UNK         0.0000 
      2 C2          0.4943   -0.6459  -10.5069 C.3       1 UNK         0.0000 
      3 C3          1.9627   -1.1294  -10.6068 C.3       1 UNK         0.0000 
      4 C4          2.6346   -2.0404   -9.5303 C.2       1 UNK         0.0000 
      5 C5          3.6397   -3.0210  -10.1089 C.3       1 UNK         0.0000 
      6 C6          2.4755   -2.0863   -8.1749 C.2       1 UNK         0.0000 
      7 C7          1.5107   -1.3380   -7.4391 C.2       1 UNK         0.0000 
      8 O8          0.3369   -1.7251   -7.4329 O.co2     1 UNK         0.0000 
      9 N9          1.7504   -0.0734   -6.9941 N.am      1 UNK         0.0000 
     10 O10         0.7609    0.6429   -6.4945 O.co2     1 UNK         0.0000 
     11 C11         2.9701    0.7301   -7.3067 C.3       1 UNK         0.0000 
     12 C12         2.8993    2.2526   -6.9032 C.3       1 UNK         0.0000 
     13 C13         1.8510    3.1205   -7.6918 C.3       1 UNK         0.0000 
     14 C14         1.3349    4.4714   -7.0970 C.3       1 UNK         0.0000 
     15 H15         2.0604    5.2302   -7.3908 H         1 UNK         0.0000 
     16 N16         0.0385    4.8908   -7.6828 N.am      1 UNK         0.0000 
     17 C17        -1.1326    4.9193   -7.0345 C.2       1 UNK         0.0000 
     18 O18        -2.1304    5.2706   -7.6592 O.2       1 UNK         0.0000 
     19 C19         1.4271    4.5894   -5.5337 C.2       1 UNK         0.0000 
     20 O20         2.4571    4.6169   -4.8618 O.2       1 UNK         0.0000 
     21 N21         0.2816    4.7917   -4.8777 N.am      1 UNK         0.0000 
     22 C22        -1.0645    4.7044   -5.4801 C.3       1 UNK         0.0000 
     23 H23        -1.5907    5.5987   -5.1582 H         1 UNK         0.0000 
     24 C24        -1.8586    3.5047   -4.8845 C.3       1 UNK         0.0000 
     25 C25        -3.3628    3.2409   -5.2308 C.3       1 UNK         0.0000 
     26 C26        -3.6353    2.4848   -6.5529 C.3       1 UNK         0.0000 
     27 N27        -2.6459    1.4127   -6.7602 N.am      1 UNK         0.0000 
     28 O28        -1.6988    1.7274   -7.6400 O.co2     1 UNK         0.0000 
     29 C29        -2.5721    0.3057   -5.9662 C.2       1 UNK         0.0000 
     30 O30        -1.5714   -0.3999   -6.0104 O.co2     1 UNK         0.0000 
     31 C31        -3.7052   -0.2850   -5.3497 C.2       1 UNK         0.0000 
     32 C32        -4.4441   -1.2422   -5.9721 C.2       1 UNK         0.0000 
     33 C33        -5.4789   -1.9303   -5.1100 C.3       1 UNK         0.0000 
     34 C34        -4.3634   -1.7253   -7.4504 C.3       1 UNK         0.0000 
     35 C35        -3.0270   -2.1437   -8.1522 C.3       1 UNK         0.0000 
     36 O36        -2.3051   -1.0676   -8.7021 O.co2     1 UNK         0.0000 
     37 H37         0.1300   -0.4248  -11.5129 H         1 UNK         0.0000 
     38 H38        -0.1093   -1.5269  -10.2933 H         1 UNK         0.0000 
     39 H39         2.5903   -0.2478  -10.6979 H         1 UNK         0.0000 
     40 H40         2.0444   -1.6198  -11.5689 H         1 UNK         0.0000 
     41 H41         4.6242   -2.8761   -9.6718 H         1 UNK         0.0000 
     42 H42         3.7280   -2.9341  -11.1884 H         1 UNK         0.0000 
     43 H43         3.3065   -4.0318   -9.8924 H         1 UNK         0.0000 
     44 H44         3.0585   -2.7413   -7.5543 H         1 UNK         0.0000 
     45 H45         3.1452    0.6604   -8.3885 H         1 UNK         0.0000 
     46 H46         3.8363    0.2807   -6.8019 H         1 UNK         0.0000 
     47 H47         2.6605    2.2532   -5.8405 H         1 UNK         0.0000 
     48 H48         3.8826    2.7189   -6.9731 H         1 UNK         0.0000 
     49 H49         0.9479    2.5485   -7.9006 H         1 UNK         0.0000 
     50 H50         2.2172    3.3101   -8.6986 H         1 UNK         0.0000 
     51 H51        -0.0817    4.9477   -8.6806 H         1 UNK         0.0000 
     52 H52         0.3973    4.7628   -3.8820 H         1 UNK         0.0000 
     53 H53        -1.8174    3.6337   -3.8059 H         1 UNK         0.0000 
     54 H54        -1.2420    2.6127   -5.0374 H         1 UNK         0.0000 
     55 H55        -3.9791    4.1368   -5.1600 H         1 UNK         0.0000 
     56 H56        -3.7376    2.5810   -4.4462 H         1 UNK         0.0000 
     57 H57        -3.5986    3.2025   -7.3849 H         1 UNK         0.0000 
     58 H58        -4.6489    2.0732   -6.5914 H         1 UNK         0.0000 
     59 H59        -3.8532    0.0367   -4.3328 H         1 UNK         0.0000 
     60 H60        -4.9838   -2.4348   -4.2853 H         1 UNK         0.0000 
     61 H61        -6.0345   -2.6685   -5.6732 H         1 UNK         0.0000 
     62 H62        -6.1676   -1.1943   -4.7154 H         1 UNK         0.0000 
     63 H63        -4.8010   -0.9140   -8.0185 H         1 UNK         0.0000 
     64 H64        -5.0611   -2.5393   -7.5852 H         1 UNK         0.0000 
     65 H65        -3.2914   -2.8688   -8.9158 H         1 UNK         0.0000 
     66 H66        -2.4362   -2.7536   -7.4725 H         1 UNK         0.0000 
     67 Fe67       -0.6956   -0.0516   -7.7233 Fe        1 UNK         0.0000 
@<TRIPOS>BOND
     1    1    2 1    
     2    1   67 nc   
     3    2    3 1    
     4    2   37 1    
     5    2   38 1    
     6    3    4 1    
     7    3   39 1    
     8    3   40 1    
     9    4    5 1    
    10    4    6 2    
    11    5   41 1    
    12    5   42 1    
    13    5   43 1    
    14    6    7 1    
    15    6   44 1    
    16    7    8 2    
    17    7    9 am   BACKBONE|DICT|INTERRES
    18    8   67 nc   
    19    9   10 1    
    20    9   11 1    
    21   10   67 nc   
    22   11   12 1    
    23   11   45 1    
    24   11   46 1    
    25   12   13 1    
    26   12   47 1    
    27   12   48 1    
    28   13   49 1    
    29   13   50 1    
    30   13   14 1    
    31   14   16 1    
    32   14   19 1    
    33   14   15 1    
    34   16   17 am   BACKBONE|DICT|INTERRES
    35   16   51 1    
    36   17   18 2    
    37   17   22 1    
    38   19   20 2    
    39   19   21 am   BACKBONE|DICT|INTERRES
    40   21   22 1    
    41   21   52 1    
    42   22   23 1    
    43   22   24 1    
    44   24   25 1    
    45   24   53 1    
    46   24   54 1    
    47   25   26 1    
    48   25   55 1    
    49   25   56 1    
    50   26   27 1    
    51   26   57 1    
    52   26   58 1    
    53   27   28 1    
    54   27   29 am   BACKBONE|DICT|INTERRES
    55   28   67 nc   
    56   29   30 2    
    57   29   31 1    
    58   30   67 nc   
    59   31   32 2    
    60   31   59 1    
    61   32   33 1    
    62   32   34 1    
    63   33   60 1    
    64   33   61 1    
    65   33   62 1    
    66   34   35 1    
    67   34   63 1    
    68   34   64 1    
    69   35   36 1    
    70   35   65 1    
    71   35   66 1    
    72   36   67 nc   
@<TRIPOS>SUBSTRUCTURE
     1 UNK         1 GROUP             0       ****    0 ROOT    
@<TRIPOS>MOLECULE
116_c1
110   115    1
SMALL
USER_CHARGES


@<TRIPOS>ATOM
      1 O1          8.3001  -18.5514    5.5833 O.3       1 UNK         0.0000 
      2 C2          8.2227  -19.1618    4.3104 C.3       1 UNK         0.0000 
      3 C3          6.7436  -19.2349    3.9038 C.3       1 UNK         0.0000 
      4 C4          6.4179  -19.9010    2.5673 C.2       1 UNK         0.0000 
      5 C5          7.5881  -20.3951    1.6917 C.3       1 UNK         0.0000 
      6 C6          5.1019  -20.0123    2.2320 C.2       1 UNK         0.0000 
      7 C7          4.6069  -20.6253    1.0067 C.2       1 UNK         0.0000 
      8 O8          5.3796  -21.0404    0.1437 O.co2     1 UNK         0.0000 
      9 N9          3.2591  -20.6887    0.7367 N.am      1 UNK         0.0000 
     10 O10         2.7677  -21.1979   -0.4030 O.co2     1 UNK         0.0000 
     11 C11         2.2581  -19.8746    1.4629 C.3       1 UNK         0.0000 
     12 C12         2.4499  -18.3952    1.0839 C.3       1 UNK         0.0000 
     13 C13         1.7439  -17.3438    1.9586 C.3       1 UNK         0.0000 
     14 C14         2.1909  -15.9031    1.5599 C.3       1 UNK         0.0000 
     15 H15         1.6954  -15.2051    2.2383 H         1 UNK         0.0000 
     16 N16         3.6493  -15.6723    1.6777 N.am      1 UNK         0.0000 
     17 C17         4.5022  -15.5966    0.6466 C.2       1 UNK         0.0000 
     18 O18         5.6955  -15.5747    0.9138 O.2       1 UNK         0.0000 
     19 C19         1.5499  -15.5443    0.1790 C.2       1 UNK         0.0000 
     20 O20         0.3507  -15.4609   -0.0484 O.2       1 UNK         0.0000 
     21 N21         2.4004  -15.3108   -0.8259 N.am      1 UNK         0.0000 
     22 C22         3.8676  -15.5007   -0.7833 C.3       1 UNK         0.0000 
     23 H23         4.3172  -14.5852   -1.1766 H         1 UNK         0.0000 
     24 C24         4.3113  -16.6916   -1.6824 C.3       1 UNK         0.0000 
     25 C25         5.8272  -16.9739   -1.9275 C.3       1 UNK         0.0000 
     26 C26         6.1326  -18.0541   -3.0177 C.3       1 UNK         0.0000 
     27 N27         5.7758  -19.4651   -2.6798 N.am      1 UNK         0.0000 
     28 O28         4.5269  -19.6035   -2.2429 O.co2     1 UNK         0.0000 
     29 C29         6.6200  -20.5263   -2.7893 C.2       1 UNK         0.0000 
     30 O30         6.2559  -21.6319   -2.3654 O.co2     1 UNK         0.0000 
     31 C31         7.8945  -20.3640   -3.4163 C.2       1 UNK         0.0000 
     32 C32         8.2742  -20.8733   -4.6168 C.2       1 UNK         0.0000 
     33 C33         9.7092  -20.6257   -5.0632 C.3       1 UNK         0.0000 
     34 C34         7.4736  -21.7039   -5.6474 C.3       1 UNK         0.0000 
     35 C35         5.9719  -22.0614   -5.4663 C.3       1 UNK         0.0000 
     36 O36         5.5672  -22.7118   -6.6781 O.3       1 UNK         0.0000 
     37 C37         4.4322  -22.4652   -7.3989 C.2       1 UNK         0.0000 
     38 O38         4.4154  -22.6980   -8.6168 O.2       1 UNK         0.0000 
     39 C39         3.1748  -21.9799   -6.6382 C.3       1 UNK         0.0000 
     40 H40         3.3856  -21.0990   -6.0284 H         1 UNK         0.0000 
     41 N41         2.1814  -21.4948   -7.7065 N.4       1 UNK         0.0000 
     42 H42         2.1904  -22.2805   -8.3584 H         1 UNK         0.0000 
     43 C43         0.7252  -21.2591   -7.2252 C.3       1 UNK         0.0000 
     44 C44         2.6248  -20.2369   -8.5095 C.3       1 UNK         0.0000 
     45 C45         2.6566  -23.1726   -5.7633 C.3       1 UNK         0.0000 
     46 C46         1.5326  -22.8898   -4.7085 C.3       1 UNK         0.0000 
     47 C47         1.7867  -23.6584   -3.3699 C.3       1 UNK         0.0000 
     48 N48         3.0844  -23.3332   -2.7036 N.am      1 UNK         0.0000 
     49 O49         3.6276  -22.1970   -3.1505 O.co2     1 UNK         0.0000 
     50 C50         3.5915  -23.9677   -1.5938 C.2       1 UNK         0.0000 
     51 O51         4.5018  -23.3826   -0.9896 O.co2     1 UNK         0.0000 
     52 C52         3.0778  -25.1913   -1.0487 C.2       1 UNK         0.0000 
     53 C53         2.9370  -26.3895   -1.6597 C.2       1 UNK         0.0000 
     54 C54         3.2651  -26.6889   -3.1276 C.3       1 UNK         0.0000 
     55 C55         2.4236  -27.5323   -0.7830 C.3       1 UNK         0.0000 
     56 C56         2.0566  -28.8709   -1.4452 C.3       1 UNK         0.0000 
     57 O57         0.9444  -28.7083   -2.3146 O.3       1 UNK         0.0000 
     58 H58         9.2142  -18.5104    5.8770 H         1 UNK         0.0000 
     59 H59         8.8059  -18.5781    3.5890 H         1 UNK         0.0000 
     60 H60         8.6741  -20.1593    4.3623 H         1 UNK         0.0000 
     61 H61         6.3187  -18.2303    3.8848 H         1 UNK         0.0000 
     62 H62         6.1937  -19.7911    4.6618 H         1 UNK         0.0000 
     63 H63         8.5813  -20.2670    2.1065 H         1 UNK         0.0000 
     64 H64         7.5986  -19.8709    0.7294 H         1 UNK         0.0000 
     65 H65         7.4873  -21.4662    1.4961 H         1 UNK         0.0000 
     66 H66         4.3496  -19.6074    2.8951 H         1 UNK         0.0000 
     67 H67         2.2898  -20.0238    2.5511 H         1 UNK         0.0000 
     68 H68         1.2312  -20.1517    1.2050 H         1 UNK         0.0000 
     69 H69         2.1469  -18.2537    0.0469 H         1 UNK         0.0000 
     70 H70         3.5141  -18.1519    1.1204 H         1 UNK         0.0000 
     71 H71         2.0120  -17.4967    3.0060 H         1 UNK         0.0000 
     72 H72         0.6535  -17.4520    1.9209 H         1 UNK         0.0000 
     73 H73         4.1239  -15.7743    2.5641 H         1 UNK         0.0000 
     74 H74         1.9208  -15.1618   -1.7013 H         1 UNK         0.0000 
     75 H75         3.8310  -16.5464   -2.6498 H         1 UNK         0.0000 
     76 H76         3.8190  -17.5660   -1.2565 H         1 UNK         0.0000 
     77 H77         6.3264  -17.2456   -0.9948 H         1 UNK         0.0000 
     78 H78         6.2989  -16.0450   -2.2463 H         1 UNK         0.0000 
     79 H79         7.1697  -17.9140   -3.3414 H         1 UNK         0.0000 
     80 H80         5.5606  -17.8241   -3.9166 H         1 UNK         0.0000 
     81 H81         8.5667  -19.7820   -2.8041 H         1 UNK         0.0000 
     82 H82        10.2601  -20.0499   -4.3221 H         1 UNK         0.0000 
     83 H83         9.7312  -20.0692   -5.9976 H         1 UNK         0.0000 
     84 H84        10.2359  -21.5710   -5.1952 H         1 UNK         0.0000 
     85 H85         8.0184  -22.6428   -5.7897 H         1 UNK         0.0000 
     86 H86         7.5648  -21.1739   -6.5978 H         1 UNK         0.0000 
     87 H87         5.8357  -22.7599   -4.6399 H         1 UNK         0.0000 
     88 H88         5.3734  -21.1711   -5.2667 H         1 UNK         0.0000 
     89 H89         0.2671  -22.2142   -6.9767 H         1 UNK         0.0000 
     90 H90         0.1333  -20.8044   -8.0251 H         1 UNK         0.0000 
     91 H91         0.7512  -20.5867   -6.3589 H         1 UNK         0.0000 
     92 H92         3.5941  -20.3914   -8.9857 H         1 UNK         0.0000 
     93 H93         2.6718  -19.4014   -7.8031 H         1 UNK         0.0000 
     94 H94         1.8795  -20.0450   -9.2884 H         1 UNK         0.0000 
     95 H95         3.5307  -23.5405   -5.2209 H         1 UNK         0.0000 
     96 H96         2.3974  -24.0432   -6.3704 H         1 UNK         0.0000 
     97 H97         0.5529  -23.1771   -5.0820 H         1 UNK         0.0000 
     98 H98         1.4456  -21.8228   -4.4923 H         1 UNK         0.0000 
     99 H99         1.7700  -24.7180   -3.6320 H         1 UNK         0.0000 
    100 H100        0.9444  -23.5190   -2.6821 H         1 UNK         0.0000 
    101 H101        2.8305  -25.0831    0.0034 H         1 UNK         0.0000 
    102 H102        3.7281  -25.8497   -3.6509 H         1 UNK         0.0000 
    103 H103        2.3462  -26.9253   -3.6652 H         1 UNK         0.0000 
    104 H104        3.9396  -27.5344   -3.2200 H         1 UNK         0.0000 
    105 H105        1.5577  -27.1619   -0.2314 H         1 UNK         0.0000 
    106 H106        3.1958  -27.7207   -0.0381 H         1 UNK         0.0000 
    107 H107        1.7881  -29.5904   -0.6703 H         1 UNK         0.0000 
    108 H108        2.9084  -29.3046   -1.9774 H         1 UNK         0.0000 
    109 H109        0.6319  -29.5654   -2.6172 H         1 UNK         0.0000 
    110 Fe110       4.4593  -21.4853   -1.5088 Fe        1 UNK         0.0000 
@<TRIPOS>BOND
     1    1    2 1    
     2    1   58 1    
     3    2    3 1    
     4    2   59 1    
     5    2   60 1    
     6    3    4 1    
     7    3   61 1    
     8    3   62 1    
     9    4    5 1    
    10    4    6 2    
    11    5   63 1    
    12    5   64 1    
    13    5   65 1    
    14    6    7 1    
    15    6   66 1    
    16    7    8 2    
    17    7    9 am   BACKBONE|DICT|INTERRES
    18    8  110 nc   
    19    9   10 1    
    20    9   11 1    
    21   10  110 nc   
    22   11   12 1    
    23   11   67 1    
    24   11   68 1    
    25   12   13 1    
    26   12   69 1    
    27   12   70 1    
    28   13   71 1    
    29   13   72 1    
    30   13   14 1    
    31   14   16 1    
    32   14   19 1    
    33   14   15 1    
    34   16   17 am   BACKBONE|DICT|INTERRES
    35   16   73 1    
    36   17   18 2    
    37   17   22 1    
    38   19   20 2    
    39   19   21 am   BACKBONE|DICT|INTERRES
    40   21   22 1    
    41   21   74 1    
    42   22   23 1    
    43   22   24 1    
    44   24   25 1    
    45   24   75 1    
    46   24   76 1    
    47   25   26 1    
    48   25   77 1    
    49   25   78 1    
    50   26   27 1    
    51   26   79 1    
    52   26   80 1    
    53   27   28 1    
    54   27   29 am   BACKBONE|DICT|INTERRES
    55   28  110 nc   
    56   29   30 2    
    57   29   31 1    
    58   30  110 nc   
    59   31   32 2    
    60   31   81 1    
    61   32   33 1    
    62   32   34 1    
    63   33   82 1    
    64   33   83 1    
    65   33   84 1    
    66   34   35 1    
    67   34   85 1    
    68   34   86 1    
    69   35   36 1    
    70   35   87 1    
    71   35   88 1    
    72   36   37 1    
    73   37   38 2    
    74   37   39 1    
    75   39   40 1    
    76   39   41 1    
    77   39   45 1    
    78   41   42 1    
    79   41   43 1    
    80   41   44 1    
    81   43   89 1    
    82   43   90 1    
    83   43   91 1    
    84   44   92 1    
    85   44   93 1    
    86   44   94 1    
    87   45   46 1    
    88   45   95 1    
    89   45   96 1    
    90   46   47 1    
    91   46   97 1    
    92   46   98 1    
    93   47   48 1    
    94   47   99 1    
    95   47  100 1    
    96   48   49 1    
    97   48   50 am   BACKBONE|DICT|INTERRES
    98   49  110 nc   
    99   50   51 2    
   100   50   52 1    
   101   51  110 nc   
   102   52   53 2    
   103   52  101 1    
   104   53   54 1    
   105   53   55 1    
   106   54  102 1    
   107   54  103 1    
   108   54  104 1    
   109   55   56 1    
   110   55  105 1    
   111   55  106 1    
   112   56   57 1    
   113   56  107 1    
   114   56  108 1    
   115   57  109 1    
@<TRIPOS>SUBSTRUCTURE
     1 UNK         1 GROUP             0       ****    0 ROOT    
@<TRIPOS>MOLECULE
125_c1
98   104    1
SMALL
USER_CHARGES


@<TRIPOS>ATOM
      1 O1          7.3894   38.1332    8.2269 O.co2     1 UNK         0.0000 
      2 N2          7.9825   39.0705    8.9882 N.am      1 UNK         0.0000 
      3 C3          7.0293   39.9627    9.6927 C.3       1 UNK         0.0000 
      4 C4          7.6850   40.5722   10.9535 C.3       1 UNK         0.0000 
      5 C5          9.0573   41.1634   10.6041 C.3       1 UNK         0.0000 
      6 C6          9.9749   40.0086   10.0680 C.3       1 UNK         0.0000 
      7 H7          9.8600   39.0949   10.6575 H         1 UNK         0.0000 
      8 C8          9.3030   39.4142    8.7590 C.2       1 UNK         0.0000 
      9 O9          9.8526   39.0845    7.6770 O.co2     1 UNK         0.0000 
     10 N10        11.4719   40.0987   10.1892 N.am      1 UNK         0.0000 
     11 C11        12.1789   41.1084   10.7577 C.2       1 UNK         0.0000 
     12 O12        11.9691   42.2990   10.5633 O.2       1 UNK         0.0000 
     13 C13        13.1615   40.7391   11.9392 C.3       1 UNK         0.0000 
     14 H14        12.5190   41.0161   12.7740 H         1 UNK         0.0000 
     15 C15        14.4743   41.5986   12.2121 C.3       1 UNK         0.0000 
     16 C16        15.6316   41.7308   11.1498 C.3       1 UNK         0.0000 
     17 C17        17.0035   42.1950   11.7223 C.3       1 UNK         0.0000 
     18 N18        16.9260   43.5929   12.3401 N.4       1 UNK         0.0000 
     19 H19        16.5317   44.2456   11.6727 H         1 UNK         0.0000 
     20 H20        16.3608   43.5853   13.1803 H         1 UNK         0.0000 
     21 H21        17.8609   43.9090   12.5856 H         1 UNK         0.0000 
     22 N22        13.2404   39.2957   12.2669 N.am      1 UNK         0.0000 
     23 C23        14.0187   38.4214   11.6268 C.2       1 UNK         0.0000 
     24 O24        14.9847   38.7596   10.9654 O.2       1 UNK         0.0000 
     25 C25        13.6303   36.9203   11.4865 C.3       1 UNK         0.0000 
     26 H26        14.5214   36.3658   11.7935 H         1 UNK         0.0000 
     27 N27        12.5310   36.5941   12.4762 N.4       1 UNK         0.0000 
     28 H28        12.7854   37.0354   13.3518 H         1 UNK         0.0000 
     29 H29        11.6578   36.9698   12.1256 H         1 UNK         0.0000 
     30 C30        12.3360   35.0970   12.7580 C.3       1 UNK         0.0000 
     31 C31        13.3275   36.6933    9.9758 C.3       1 UNK         0.0000 
     32 C32        12.1000   35.8991    9.5241 C.3       1 UNK         0.0000 
     33 C33        12.0502   36.0662    7.9919 C.3       1 UNK         0.0000 
     34 N34        10.7576   35.9562    7.3115 N.am      1 UNK         0.0000 
     35 O35         9.7094   36.3281    8.0518 O.co2     1 UNK         0.0000 
     36 C36        10.8523   36.2168    5.9964 C.2       1 UNK         0.0000 
     37 O37        10.0672   37.0616    5.5334 O.co2     1 UNK         0.0000 
     38 C38        11.8824   35.4819    5.1342 C.3       1 UNK         0.0000 
     39 C39        11.7731   33.9341    5.1056 C.3       1 UNK         0.0000 
     40 N40        10.4578   33.3487    4.8515 N.am      1 UNK         0.0000 
     41 C41         9.8475   33.4160    3.6667 C.2       1 UNK         0.0000 
     42 O42        10.2128   34.1782    2.7819 O.2       1 UNK         0.0000 
     43 C43         8.5765   32.5875    3.4359 C.3       1 UNK         0.0000 
     44 C44         7.2530   32.9541    4.1823 C.3       1 UNK         0.0000 
     45 N45         7.2606   33.9913    5.2228 N.am      1 UNK         0.0000 
     46 C46         7.5003   35.3314    5.1774 C.2       1 UNK         0.0000 
     47 O47         7.6096   35.9401    6.2565 O.co2     1 UNK         0.0000 
     48 C48         7.8451   36.1657    3.8848 C.3       1 UNK         0.0000 
     49 H49         8.9033   35.8797    3.8281 H         1 UNK         0.0000 
     50 N50         7.3413   35.5501    2.6227 N.4       1 UNK         0.0000 
     51 H51         6.4124   35.1923    2.7717 H         1 UNK         0.0000 
     52 H52         7.2517   36.3234    1.9736 H         1 UNK         0.0000 
     53 H53         7.9592   34.8223    2.3030 H         1 UNK         0.0000 
     54 C54         7.5059   37.7085    3.9583 C.3       1 UNK         0.0000 
     55 H55         8.2240   38.1140    3.2291 H         1 UNK         0.0000 
     56 O56         7.6240   38.4378    5.1683 O.co2     1 UNK         0.0000 
     57 C57         6.1859   38.1315    3.3517 C.ar      1 UNK         0.0000 
     58 N58         5.0270   37.3460    3.2421 N.pl3     1 UNK         0.0000 
     59 H59         4.7696   36.5152    3.7545 H         1 UNK         0.0000 
     60 C60         4.1764   38.0231    2.4737 C.ar      1 UNK         0.0000 
     61 N61         4.6267   39.2129    2.1280 N.2       1 UNK         0.0000 
     62 C62         5.8643   39.3353    2.7458 C.ar      1 UNK         0.0000 
     63 H63         6.1585   39.3809   10.0034 H         1 UNK         0.0000 
     64 H64         6.6602   40.7052    8.9743 H         1 UNK         0.0000 
     65 H65         7.8098   39.7599   11.6695 H         1 UNK         0.0000 
     66 H66         7.0060   41.2947   11.4045 H         1 UNK         0.0000 
     67 H67         9.4798   41.6641   11.4792 H         1 UNK         0.0000 
     68 H68         8.9274   41.9210    9.8220 H         1 UNK         0.0000 
     69 H69        11.8999   39.2034   10.3240 H         1 UNK         0.0000 
     70 H70        14.9068   41.1957   13.1329 H         1 UNK         0.0000 
     71 H71        14.1300   42.5978   12.4838 H         1 UNK         0.0000 
     72 H72        15.3182   42.3575   10.3108 H         1 UNK         0.0000 
     73 H73        15.8758   40.7923   10.6699 H         1 UNK         0.0000 
     74 H74        17.7573   42.2666   10.9368 H         1 UNK         0.0000 
     75 H75        17.3976   41.5336   12.5014 H         1 UNK         0.0000 
     76 H76        12.5341   39.0237   12.9344 H         1 UNK         0.0000 
     77 H77        13.2750   34.6801   13.1272 H         1 UNK         0.0000 
     78 H78        12.0334   34.5890   11.8415 H         1 UNK         0.0000 
     79 H79        11.5435   34.9953   13.4955 H         1 UNK         0.0000 
     80 H80        14.2213   36.2831    9.4954 H         1 UNK         0.0000 
     81 H81        13.2016   37.6771    9.4961 H         1 UNK         0.0000 
     82 H82        11.2005   36.2677   10.0233 H         1 UNK         0.0000 
     83 H83        12.1951   34.8335    9.7303 H         1 UNK         0.0000 
     84 H84        12.8472   35.4455    7.5622 H         1 UNK         0.0000 
     85 H85        12.3649   37.0820    7.7343 H         1 UNK         0.0000 
     86 H86        11.6586   35.8173    4.1218 H         1 UNK         0.0000 
     87 H87        12.9083   35.8545    5.2052 H         1 UNK         0.0000 
     88 H88        11.8769   33.6152    6.1445 H         1 UNK         0.0000 
     89 H89        12.6434   33.4428    4.6933 H         1 UNK         0.0000 
     90 H90        10.0441   32.8350    5.6159 H         1 UNK         0.0000 
     91 H91         8.7956   31.5204    3.5111 H         1 UNK         0.0000 
     92 H92         8.3437   32.5946    2.3694 H         1 UNK         0.0000 
     93 H93         6.8728   32.0070    4.5958 H         1 UNK         0.0000 
     94 H94         6.4232   33.0688    3.4785 H         1 UNK         0.0000 
     95 H95         7.0822   33.6520    6.1570 H         1 UNK         0.0000 
     96 H96         3.2101   37.6325    2.1767 H         1 UNK         0.0000 
     97 H97         6.4449   40.2368    2.6998 H         1 UNK         0.0000 
     98 Fe98        8.6894   37.5907    6.8030 Fe        1 UNK         0.0000 
@<TRIPOS>BOND
     1    1    2 1    
     2    1   98 nc   
     3    2    3 1    
     4    2    8 am   BACKBONE|DICT|INTERRES
     5    3    4 1    
     6    3   63 1    
     7    3   64 1    
     8    4    5 1    
     9    4   65 1    
    10    4   66 1    
    11    5    6 1    
    12    5   67 1    
    13    5   68 1    
    14    6    7 1    
    15    6    8 1    
    16    6   10 1    
    17    8    9 2    
    18    9   98 nc   
    19   10   11 am   BACKBONE|DICT|INTERRES
    20   10   69 1    
    21   11   12 2    
    22   11   13 1    
    23   13   15 1    
    24   13   22 1    
    25   13   14 1    
    26   15   16 1    
    27   15   70 1    
    28   15   71 1    
    29   16   17 1    
    30   16   72 1    
    31   16   73 1    
    32   17   18 1    
    33   17   74 1    
    34   17   75 1    
    35   18   19 1    
    36   18   20 1    
    37   18   21 1    
    38   22   23 am   BACKBONE|DICT|INTERRES
    39   22   76 1    
    40   23   24 2    
    41   23   25 1    
    42   25   26 1    
    43   25   27 1    
    44   25   31 1    
    45   27   28 1    
    46   27   29 1    
    47   27   30 1    
    48   30   77 1    
    49   30   78 1    
    50   30   79 1    
    51   31   32 1    
    52   31   80 1    
    53   31   81 1    
    54   32   33 1    
    55   32   82 1    
    56   32   83 1    
    57   33   34 1    
    58   33   84 1    
    59   33   85 1    
    60   34   35 1    
    61   34   36 am   BACKBONE|DICT|INTERRES
    62   35   98 nc   
    63   36   37 2    
    64   36   38 1    
    65   37   98 nc   
    66   38   39 1    
    67   38   86 1    
    68   38   87 1    
    69   39   40 1    
    70   39   88 1    
    71   39   89 1    
    72   40   41 am   BACKBONE|DICT|INTERRES
    73   40   90 1    
    74   41   42 2    
    75   41   43 1    
    76   43   44 1    
    77   43   91 1    
    78   43   92 1    
    79   44   45 1    
    80   44   93 1    
    81   44   94 1    
    82   45   46 am   BACKBONE|DICT|INTERRES
    83   45   95 1    
    84   46   47 2    
    85   46   48 1    
    86   47   98 nc   
    87   48   49 1    
    88   48   50 1    
    89   48   54 1    
    90   50   51 1    
    91   50   52 1    
    92   50   53 1    
    93   54   56 1    
    94   54   57 1    
    95   54   55 1    
    96   56   98 nc   
    97   57   58 ar   
    98   57   62 ar   
    99   58   59 1    
   100   58   60 ar   
   101   60   61 ar   
   102   60   96 1    
   103   61   62 ar   
   104   62   97 1    
@<TRIPOS>SUBSTRUCTURE
     1 UNK         1 GROUP             0       ****    0 ROOT    
@<TRIPOS>MOLECULE
132_c1
95   102    1
SMALL
USER_CHARGES


@<TRIPOS>ATOM
      1 F1         -1.9272   -5.2459   -2.1114 F         1 UNK         0.0000 
      2 C2         -2.4960   -4.0273   -2.0137 C.ar      1 UNK         0.0000 
      3 C3         -1.6975   -2.8946   -1.9605 C.ar      1 UNK         0.0000 
      4 C4         -3.8686   -3.9055   -1.9575 C.ar      1 UNK         0.0000 
      5 C5         -4.4456   -2.6450   -1.8594 C.ar      1 UNK         0.0000 
      6 C6         -3.6558   -1.4895   -1.8333 C.ar      1 UNK         0.0000 
      7 O7         -4.3225   -0.4097   -1.7988 O.co2     1 UNK         0.0000 
      8 C8         -2.2300   -1.5829   -1.8550 C.ar      1 UNK         0.0000 
      9 C9         -1.2597   -0.4322   -1.7203 C.2       1 UNK         0.0000 
     10 C10         0.1906   -0.7744   -1.6444 C.ar      1 UNK         0.0000 
     11 C11         0.8742   -0.7853   -0.4193 C.ar      1 UNK         0.0000 
     12 C12         2.2135   -1.1617   -0.3653 C.ar      1 UNK         0.0000 
     13 C13         2.8786   -1.5397   -1.5297 C.ar      1 UNK         0.0000 
     14 Cl14        4.5302   -2.0332   -1.4537 Cl        1 UNK         0.0000 
     15 C15         2.2150   -1.5293   -2.7543 C.ar      1 UNK         0.0000 
     16 C16         0.8810   -1.1365   -2.8145 C.ar      1 UNK         0.0000 
     17 N17        -1.7261    0.7916   -1.6488 N.pl3     1 UNK         0.0000 
     18 C18        -0.8046    1.9086   -1.3264 C.3       1 UNK         0.0000 
     19 C19        -1.2375    2.7986   -0.0757 C.3       1 UNK         0.0000 
     20 C20        -2.5248    3.0117    0.8500 C.3       1 UNK         0.0000 
     21 C21        -3.9549    3.1785    0.2549 C.2       1 UNK         0.0000 
     22 O22        -4.2935    2.5209   -0.7413 O.co2     1 UNK         0.0000 
     23 O23        -4.8120    4.0655    0.8347 O.3       1 UNK         0.0000 
     24 C24        -4.5506    4.8495    2.0078 C.3       1 UNK         0.0000 
     25 C25        -3.6288    6.0663    1.7569 C.3       1 UNK         0.0000 
     26 O26        -4.0631    7.2065    2.4846 O.3       1 UNK         0.0000 
     27 C27        -3.0924    8.2467    2.5413 C.3       1 UNK         0.0000 
     28 H28        -0.6363   -3.0983   -1.9952 H         1 UNK         0.0000 
     29 H29        -4.4904   -4.7923   -1.9988 H         1 UNK         0.0000 
     30 H30        -5.5213   -2.5686   -1.8133 H         1 UNK         0.0000 
     31 H31         0.3713   -0.5140    0.4989 H         1 UNK         0.0000 
     32 H32         2.7421   -1.1730    0.5795 H         1 UNK         0.0000 
     33 H33         2.7392   -1.8341   -3.6508 H         1 UNK         0.0000 
     34 H34         0.3855   -1.1558   -3.7771 H         1 UNK         0.0000 
     35 H35        -0.6672    2.4996   -2.2404 H         1 UNK         0.0000 
     36 H36         0.2299    1.6082   -1.1257 H         1 UNK         0.0000 
     37 H37        -1.2591    1.8242    0.4104 H         1 UNK         0.0000 
     38 H38        -1.7771    3.3727   -0.8252 H         1 UNK         0.0000 
     39 H39        -2.3027    3.9170    1.4008 H         1 UNK         0.0000 
     40 H40        -2.6229    2.2724    1.6515 H         1 UNK         0.0000 
     41 H41        -4.1572    4.2335    2.8173 H         1 UNK         0.0000 
     42 H42        -5.4991    5.2200    2.4036 H         1 UNK         0.0000 
     43 H43        -2.6062    5.8267    2.0454 H         1 UNK         0.0000 
     44 H44        -3.6211    6.3268    0.6957 H         1 UNK         0.0000 
     45 H45        -3.5584    9.1709    2.8769 H         1 UNK         0.0000 
     46 H46        -2.6351    8.4346    1.5696 H         1 UNK         0.0000 
     47 H47        -2.3012    7.9922    3.2466 H         1 UNK         0.0000 
     48 H48        -4.5827   -2.6803   -4.5415 H         1 UNK         0.0000 
     49 H49        -2.6447    7.4341   -2.4926 H         1 UNK         0.0000 
     50 H50        -6.5544   -4.8586   -5.6789 H         1 UNK         0.0000 
     51 C51        -3.8241   -2.7542   -5.3206 C.3       1 UNK         0.0000 
     52 C52        -3.2974    6.5879   -2.6652 C.ar      1 UNK         0.0000 
     53 O53        -3.2563    0.3463   -4.2089 O.co2     1 UNK         0.0000 
     54 H54        -3.0216   -3.3890   -4.9478 H         1 UNK         0.0000 
     55 H55        -1.6964    5.1829   -2.7787 H         1 UNK         0.0000 
     56 H56        -7.1512   -0.7818   -4.6750 H         1 UNK         0.0000 
     57 C57        -5.8720   -5.3489   -6.3745 C.3       1 UNK         0.0000 
     58 C58        -3.8310   -0.3753   -5.0509 C.2       1 UNK         0.0000 
     59 O59        -3.2691   -1.4609   -5.5740 O.3       1 UNK         0.0000 
     60 C60        -2.7687    5.3141   -2.8352 C.ar      1 UNK         0.0000 
     61 H61        -5.8343   -6.4055   -6.1148 H         1 UNK         0.0000 
     62 F62        -5.1867    8.0023   -2.5408 F         1 UNK         0.0000 
     63 H63        -5.5747   -0.7926   -6.2418 H         1 UNK         0.0000 
     64 C64        -4.6675    6.7704   -2.7123 C.ar      1 UNK         0.0000 
     65 O65        -4.5647   -4.7983   -6.2971 O.3       1 UNK         0.0000 
     66 C66        -6.2837   -0.2515   -4.2728 C.3       1 UNK         0.0000 
     67 C67        -5.2838   -0.1048   -5.4481 C.3       1 UNK         0.0000 
     68 H68        -7.4171    0.7897   -2.7453 H         1 UNK         0.0000 
     69 C69        -4.4653   -3.4022   -6.5575 C.3       1 UNK         0.0000 
     70 C70        -3.6054    4.2222   -3.0865 C.ar      1 UNK         0.0000 
     71 H71        -8.8020    2.8273   -3.4479 H         1 UNK         0.0000 
     72 C72        -6.8242    1.0431   -3.6305 C.3       1 UNK         0.0000 
     73 N73        -5.8123    2.0642   -3.2587 N.pl3     1 UNK         0.0000 
     74 C74        -5.5041    5.6865   -2.9470 C.ar      1 UNK         0.0000 
     75 O75        -3.0288    3.1134   -3.1718 O.co2     1 UNK         0.0000 
     76 H76        -6.2722   -5.2635   -7.3847 H         1 UNK         0.0000 
     77 C77        -5.0128    4.3844   -3.2129 C.ar      1 UNK         0.0000 
     78 C78        -6.0099    3.3195   -3.6292 C.2       1 UNK         0.0000 
     79 C79        -8.5111    3.4935   -4.2484 C.ar      1 UNK         0.0000 
     80 H80        -5.4249   -2.9399   -6.8009 H         1 UNK         0.0000 
     81 H81        -6.5667    5.9039   -2.9572 H         1 UNK         0.0000 
     82 H82        -5.9527   -0.9470   -3.5062 H         1 UNK         0.0000 
     83 H83       -10.5480    3.6724   -4.9201 H         1 UNK         0.0000 
     84 C84        -7.1612    3.8384   -4.4630 C.ar      1 UNK         0.0000 
     85 H85        -3.8227   -3.2662   -7.4290 H         1 UNK         0.0000 
     86 H86        -5.3478    0.8848   -5.9070 H         1 UNK         0.0000 
     87 C87        -9.5204    3.9799   -5.0741 C.ar      1 UNK         0.0000 
     88 H88        -7.5458    1.3473   -4.3844 H         1 UNK         0.0000 
     89 C89        -6.8877    4.7784   -5.4768 C.ar      1 UNK         0.0000 
     90 C90        -9.2105    4.8761   -6.0925 C.ar      1 UNK         0.0000 
     91 C91        -7.8976    5.2966   -6.2786 C.ar      1 UNK         0.0000 
     92 H92        -5.8786    5.1253   -5.6630 H         1 UNK         0.0000 
     93 Cl93      -10.4592    5.4725   -7.1214 Cl        1 UNK         0.0000 
     94 H94        -7.6627    6.0228   -7.0441 H         1 UNK         0.0000 
     95 Fe95       -3.7472    1.3888   -2.4825 Fe        1 UNK         0.0000 
@<TRIPOS>BOND
     1    1    2 1    
     2    2    3 ar   
     3    2    4 ar   
     4    3    8 ar   
     5    3   28 1    
     6    4    5 ar   
     7    4   29 1    
     8    5    6 ar   
     9    5   30 1    
    10    6    7 1    
    11    6    8 ar   
    12    7   95 nc   
    13    8    9 1    
    14    9   10 1    
    15    9   17 2    
    16   10   11 ar   
    17   10   16 ar   
    18   11   12 ar   
    19   11   31 1    
    20   12   13 ar   
    21   12   32 1    
    22   13   14 1    
    23   13   15 ar   
    24   15   16 ar   
    25   15   33 1    
    26   16   34 1    
    27   17   18 1    
    28   17   95 nc   
    29   18   19 1    
    30   18   35 1    
    31   18   36 1    
    32   19   20 1    
    33   19   37 1    
    34   19   38 1    
    35   20   21 1    
    36   20   39 1    
    37   20   40 1    
    38   21   22 2    
    39   21   23 1    
    40   22   95 nc   
    41   23   24 1    
    42   24   25 1    
    43   24   41 1    
    44   24   42 1    
    45   25   26 1    
    46   25   43 1    
    47   25   44 1    
    48   26   27 1    
    49   27   45 1    
    50   27   46 1    
    51   27   47 1    
    52   48   51 1    
    53   49   52 1    
    54   50   57 1    
    55   51   69 1    
    56   51   54 1    
    57   51   59 1    
    58   52   60 ar   
    59   52   64 ar   
    60   53   58 2    
    61   53   95 nc   
    62   55   60 1    
    63   56   66 1    
    64   57   61 1    
    65   57   76 1    
    66   57   65 1    
    67   58   59 1    
    68   58   67 1    
    69   60   70 ar   
    70   62   64 1    
    71   63   67 1    
    72   64   74 ar   
    73   65   69 1    
    74   66   67 1    
    75   66   82 1    
    76   66   72 1    
    77   67   86 1    
    78   68   72 1    
    79   69   80 1    
    80   69   85 1    
    81   70   75 1    
    82   70   77 ar   
    83   71   79 1    
    84   72   88 1    
    85   72   73 1    
    86   73   78 2    
    87   73   95 nc   
    88   74   77 ar   
    89   74   81 1    
    90   75   95 nc   
    91   77   78 1    
    92   78   84 1    
    93   79   87 ar   
    94   79   84 ar   
    95   83   87 1    
    96   84   89 ar   
    97   87   90 ar   
    98   89   92 1    
    99   89   91 ar   
   100   90   93 1    
   101   90   91 ar   
   102   91   94 1    
@<TRIPOS>SUBSTRUCTURE
     1 UNK         1 GROUP             0       ****    0 ROOT    
@<TRIPOS>MOLECULE
160_c1
74   78    1
SMALL
USER_CHARGES


@<TRIPOS>ATOM
      1 O1         -4.4402   -1.7258   -1.9019 O.co2     1 UNK         0.0000 
      2 C2         -5.2648   -1.9225   -2.8257 C.2       1 UNK         0.0000 
      3 O3         -4.9603   -2.1094   -4.0116 O.co2     1 UNK         0.0000 
      4 C4         -6.7603   -1.8631   -2.4387 C.3       1 UNK         0.0000 
      5 H5         -7.0058   -2.7154   -1.7903 H         1 UNK         0.0000 
      6 N6         -7.5296   -2.1562   -3.7291 N.4       1 UNK         0.0000 
      7 H7         -8.5227   -2.1902   -3.5698 H         1 UNK         0.0000 
      8 H8         -7.2801   -1.4576   -4.4086 H         1 UNK         0.0000 
      9 H9         -7.1775   -3.0238   -4.1020 H         1 UNK         0.0000 
     10 C10        -7.1866   -0.4867   -1.8212 C.3       1 UNK         0.0000 
     11 C11        -7.1485    0.8238   -2.6878 C.3       1 UNK         0.0000 
     12 C12        -5.8026    1.3798   -3.2853 C.3       1 UNK         0.0000 
     13 N13        -4.5419    1.2573   -2.4933 N.am      1 UNK         0.0000 
     14 O14        -3.5192    0.7636   -3.1995 O.co2     1 UNK         0.0000 
     15 C15        -4.5150    1.3501   -1.1330 C.2       1 UNK         0.0000 
     16 O16        -3.7061    0.6462   -0.5259 O.co2     1 UNK         0.0000 
     17 C17        -5.4419    2.2180   -0.4814 C.2       1 UNK         0.0000 
     18 C18        -5.4103    3.5759   -0.5412 C.2       1 UNK         0.0000 
     19 C19        -6.5707    4.3634    0.0352 C.3       1 UNK         0.0000 
     20 C20        -4.2904    4.4063   -1.1707 C.3       1 UNK         0.0000 
     21 C21        -3.5598    5.3118   -0.1523 C.3       1 UNK         0.0000 
     22 C22        -2.5056    4.5787    0.7149 C.3       1 UNK         0.0000 
     23 C23        -1.1178    4.6216    0.0613 C.2       1 UNK         0.0000 
     24 O24        -0.4542    5.6580    0.0615 O.2       1 UNK         0.0000 
     25 C25        -0.6592    3.3774   -0.6529 C.3       1 UNK         0.0000 
     26 H26        -1.4468    2.6485   -0.4939 H         1 UNK         0.0000 
     27 N27        -0.6791    3.7460   -2.1115 N.4       1 UNK         0.0000 
     28 H28        -0.5375    2.8772   -2.6212 H         1 UNK         0.0000 
     29 H29        -1.5494    4.1683   -2.3960 H         1 UNK         0.0000 
     30 H30         0.0904    4.3819   -2.2674 H         1 UNK         0.0000 
     31 C31         0.7553    2.9236   -0.1922 C.3       1 UNK         0.0000 
     32 C32         1.4276    1.7939   -1.0094 C.3       1 UNK         0.0000 
     33 C33         1.0186    0.3654   -0.5896 C.3       1 UNK         0.0000 
     34 N34        -0.4158   -0.0160   -0.7155 N.am      1 UNK         0.0000 
     35 O35        -1.1462    0.7256   -1.5590 O.co2     1 UNK         0.0000 
     36 C36        -0.8587   -1.2305   -0.2544 C.2       1 UNK         0.0000 
     37 O37        -2.0581   -1.5135   -0.3291 O.co2     1 UNK         0.0000 
     38 C38         0.1115   -2.2697   -0.1332 C.2       1 UNK         0.0000 
     39 C39         0.7042   -2.9206   -1.1871 C.2       1 UNK         0.0000 
     40 C40         1.7664   -3.9386   -0.8397 C.3       1 UNK         0.0000 
     41 C41         0.5222   -2.8279   -2.7345 C.3       1 UNK         0.0000 
     42 C42        -0.4265   -1.8701   -3.5160 C.3       1 UNK         0.0000 
     43 O43        -1.7746   -1.9355   -3.1521 O.co2     1 UNK         0.0000 
     44 H44        -6.6072   -0.3346   -0.9134 H         1 UNK         0.0000 
     45 H45        -8.2037   -0.6073   -1.4596 H         1 UNK         0.0000 
     46 H46        -7.8856    0.7743   -3.4813 H         1 UNK         0.0000 
     47 H47        -7.5480    1.6160   -2.0537 H         1 UNK         0.0000 
     48 H48        -5.9248    2.4424   -3.5121 H         1 UNK         0.0000 
     49 H49        -5.6693    0.9070   -4.2598 H         1 UNK         0.0000 
     50 H50        -6.2242    1.6907    0.0443 H         1 UNK         0.0000 
     51 H51        -7.3539    3.6967    0.4008 H         1 UNK         0.0000 
     52 H52        -7.0096    4.9915   -0.7410 H         1 UNK         0.0000 
     53 H53        -6.2557    4.9826    0.8734 H         1 UNK         0.0000 
     54 H54        -3.5651    3.7969   -1.7121 H         1 UNK         0.0000 
     55 H55        -4.7537    5.0305   -1.9338 H         1 UNK         0.0000 
     56 H56        -4.2666    5.8119    0.5105 H         1 UNK         0.0000 
     57 H57        -3.0948    6.1407   -0.6907 H         1 UNK         0.0000 
     58 H58        -2.8222    3.5577    0.9507 H         1 UNK         0.0000 
     59 H59        -2.4297    5.0713    1.6836 H         1 UNK         0.0000 
     60 H60         0.7159    2.6222    0.8537 H         1 UNK         0.0000 
     61 H61         1.4355    3.7797   -0.2377 H         1 UNK         0.0000 
     62 H62         2.5021    1.8530   -0.8522 H         1 UNK         0.0000 
     63 H63         1.3158    1.9219   -2.0856 H         1 UNK         0.0000 
     64 H64         1.3495    0.2000    0.4457 H         1 UNK         0.0000 
     65 H65         1.5855   -0.3230   -1.2170 H         1 UNK         0.0000 
     66 H66         0.3774   -2.4856    0.8896 H         1 UNK         0.0000 
     67 H67         1.9324   -4.0471    0.2305 H         1 UNK         0.0000 
     68 H68         2.7175   -3.6557   -1.2850 H         1 UNK         0.0000 
     69 H69         1.4848   -4.9169   -1.2221 H         1 UNK         0.0000 
     70 H70         0.2370   -3.8248   -3.0370 H         1 UNK         0.0000 
     71 H71         1.5114   -2.6635   -3.1496 H         1 UNK         0.0000 
     72 H72        -0.2667   -2.0291   -4.5871 H         1 UNK         0.0000 
     73 H73        -0.0412   -0.8579   -3.3969 H         1 UNK         0.0000 
     74 Fe74       -2.7389   -0.5439   -1.8740 Fe        1 UNK         0.0000 
@<TRIPOS>BOND
     1    1    2 1    
     2    1   74 nc   
     3    2    3 2    
     4    2    4 1    
     5    4    5 1    
     6    4    6 1    
     7    4   10 1    
     8    6    7 1    
     9    6    8 1    
    10    6    9 1    
    11   10   11 1    
    12   10   44 1    
    13   10   45 1    
    14   11   12 1    
    15   11   46 1    
    16   11   47 1    
    17   12   13 1    
    18   12   48 1    
    19   12   49 1    
    20   13   14 1    
    21   13   15 am   BACKBONE|DICT|INTERRES
    22   14   74 nc   
    23   15   16 2    
    24   15   17 1    
    25   16   74 nc   
    26   17   18 2    
    27   17   50 1    
    28   18   19 1    
    29   18   20 1    
    30   19   51 1    
    31   19   52 1    
    32   19   53 1    
    33   20   21 1    
    34   20   54 1    
    35   20   55 1    
    36   21   22 1    
    37   21   56 1    
    38   21   57 1    
    39   22   23 1    
    40   22   58 1    
    41   22   59 1    
    42   23   24 2    
    43   23   25 1    
    44   25   26 1    
    45   25   27 1    
    46   25   31 1    
    47   27   28 1    
    48   27   29 1    
    49   27   30 1    
    50   31   32 1    
    51   31   60 1    
    52   31   61 1    
    53   32   33 1    
    54   32   62 1    
    55   32   63 1    
    56   33   34 1    
    57   33   64 1    
    58   33   65 1    
    59   34   35 1    
    60   34   36 am   BACKBONE|DICT|INTERRES
    61   35   74 nc   
    62   36   37 2    
    63   36   38 1    
    64   37   74 nc   
    65   38   39 2    
    66   38   66 1    
    67   39   40 1    
    68   39   41 1    
    69   40   67 1    
    70   40   68 1    
    71   40   69 1    
    72   41   42 1    
    73   41   70 1    
    74   41   71 1    
    75   42   43 1    
    76   42   72 1    
    77   42   73 1    
    78   43   74 nc   
@<TRIPOS>SUBSTRUCTURE
     1 UNK         1 GROUP             0       ****    0 ROOT    
@<TRIPOS>MOLECULE
163_c1
130   137    1
SMALL
USER_CHARGES


@<TRIPOS>ATOM
      1 C1         -8.1577    4.4093    5.2344 C.ar      1 UNK         0.0000 
      2 C2         -6.9717    3.9706    5.8097 C.ar      1 UNK         0.0000 
      3 C3         -5.7747    4.1970    5.1526 C.ar      1 UNK         0.0000 
      4 C4         -5.7451    4.9711    3.9954 C.ar      1 UNK         0.0000 
      5 O5         -4.6499    5.0425    3.3832 O.co2     1 UNK         0.0000 
      6 C6         -6.9156    5.5937    3.5163 C.ar      1 UNK         0.0000 
      7 O7         -6.7983    6.5329    2.6456 O.co2     1 UNK         0.0000 
      8 C8         -8.1596    5.1544    4.0293 C.ar      1 UNK         0.0000 
      9 C9         -9.4455    5.2318    3.2115 C.2       1 UNK         0.0000 
     10 O10        -9.4688    5.2532    1.9854 O.2       1 UNK         0.0000 
     11 N11       -10.5771    4.9693    3.8709 N.am      1 UNK         0.0000 
     12 C12       -11.8012    4.3968    3.2855 C.3       1 UNK         0.0000 
     13 H13       -12.4342    4.1927    4.1514 H         1 UNK         0.0000 
     14 C14       -11.4450    3.0241    2.5997 C.3       1 UNK         0.0000 
     15 C15       -12.5904    2.0183    2.3586 C.3       1 UNK         0.0000 
     16 C16       -13.6161    2.4237    1.2718 C.3       1 UNK         0.0000 
     17 N17       -14.4901    1.2917    0.9088 N.pl3     1 UNK         0.0000 
     18 C18       -15.4220    0.7202    1.6911 C.cat     1 UNK         0.0000 
     19 N19       -16.0979   -0.3463    1.2520 N.pl3     1 UNK         0.0000 
     20 N20       -15.6691    1.2059    2.9027 N.pl3     1 UNK         0.0000 
     21 H21       -15.1948    2.0462    3.2103 H         1 UNK         0.0000 
     22 H22       -16.3556    0.8185    3.5361 H         1 UNK         0.0000 
     23 C23       -12.6244    5.3188    2.3446 C.2       1 UNK         0.0000 
     24 O24       -13.8143    5.4897    2.6121 O.2       1 UNK         0.0000 
     25 N25       -12.0679    5.7958    1.2234 N.am      1 UNK         0.0000 
     26 C26       -12.8365    6.4440    0.1587 C.3       1 UNK         0.0000 
     27 C27       -12.1344    6.1475   -1.1677 C.2       1 UNK         0.0000 
     28 O28       -12.5651    5.2648   -1.9086 O.2       1 UNK         0.0000 
     29 N29       -11.0279    6.8445   -1.4322 N.am      1 UNK         0.0000 
     30 C30       -10.0242    6.4722   -2.4258 C.3       1 UNK         0.0000 
     31 C31        -8.8490    5.9534   -1.5858 C.2       1 UNK         0.0000 
     32 O32        -8.8062    6.2840   -0.4142 O.2       1 UNK         0.0000 
     33 N33        -7.9087    5.1981   -2.1706 N.am      1 UNK         0.0000 
     34 C34        -6.7111    4.6601   -1.4880 C.3       1 UNK         0.0000 
     35 H35        -7.1582    3.9264   -0.8195 H         1 UNK         0.0000 
     36 C36        -6.0007    5.6030   -0.4974 C.2       1 UNK         0.0000 
     37 O37        -5.7385    5.0985    0.6070 O.co2     1 UNK         0.0000 
     38 C38        -5.7163    3.8202   -2.3515 C.3       1 UNK         0.0000 
     39 O39        -4.3351    4.1923   -2.2958 O.3       1 UNK         0.0000 
     40 C40        -3.7130    5.2337   -2.9289 C.2       1 UNK         0.0000 
     41 O41        -2.5907    5.5920   -2.5913 O.2       1 UNK         0.0000 
     42 C42        -4.2773    5.7406   -4.2606 C.3       1 UNK         0.0000 
     43 H43        -3.7060    6.6396   -4.4952 H         1 UNK         0.0000 
     44 C44        -5.7662    6.1949   -4.3215 C.3       1 UNK         0.0000 
     45 C45        -6.2168    7.3775   -3.4128 C.3       1 UNK         0.0000 
     46 C46        -5.5710    7.6886   -2.0201 C.3       1 UNK         0.0000 
     47 N47        -5.7005    6.9119   -0.7483 N.am      1 UNK         0.0000 
     48 O48        -5.2483    7.6623    0.2638 O.co2     1 UNK         0.0000 
     49 N49        -3.8125    4.7348   -5.2484 N.am      1 UNK         0.0000 
     50 C50        -4.3929    3.5760   -5.5974 C.2       1 UNK         0.0000 
     51 O51        -5.6076    3.3982   -5.6413 O.2       1 UNK         0.0000 
     52 C52        -3.4469    2.3786   -5.7333 C.3       1 UNK         0.0000 
     53 N53        -2.9770    2.1645   -4.3603 N.am      1 UNK         0.0000 
     54 C54        -1.7149    2.1560   -3.9193 C.2       1 UNK         0.0000 
     55 O55        -0.7448    2.0330   -4.6667 O.2       1 UNK         0.0000 
     56 C56        -1.5497    2.1955   -2.3943 C.3       1 UNK         0.0000 
     57 N57        -0.2691    2.6598   -1.8663 N.am      1 UNK         0.0000 
     58 C58         0.3569    3.8167   -2.1403 C.2       1 UNK         0.0000 
     59 O59         0.2714    4.4058   -3.2188 O.2       1 UNK         0.0000 
     60 C60         1.3045    4.3238   -1.0035 C.3       1 UNK         0.0000 
     61 H61         1.6841    3.4151   -0.5251 H         1 UNK         0.0000 
     62 C62         2.5675    5.1590   -1.4073 C.3       1 UNK         0.0000 
     63 C63         3.2709    5.0014   -2.7830 C.3       1 UNK         0.0000 
     64 C64         3.9344    3.6340   -3.0748 C.3       1 UNK         0.0000 
     65 N65         2.9972    2.6338   -3.6148 N.pl3     1 UNK         0.0000 
     66 C66         2.7801    2.3410   -4.9037 C.cat     1 UNK         0.0000 
     67 N67         3.5274    2.8849   -5.8672 N.pl3     1 UNK         0.0000 
     68 N68         1.8108    1.4983   -5.2290 N.pl3     1 UNK         0.0000 
     69 H69         0.9446    1.5137   -4.6722 H         1 UNK         0.0000 
     70 H70         1.6493    1.1794   -6.1705 H         1 UNK         0.0000 
     71 N71         0.6002    5.0893    0.0360 N.am      1 UNK         0.0000 
     72 C72        -0.4198    4.6954    0.8143 C.2       1 UNK         0.0000 
     73 O73        -0.8324    3.5267    0.8008 O.2       1 UNK         0.0000 
     74 C74        -0.8793    5.7816    1.7854 C.ar      1 UNK         0.0000 
     75 C75        -2.2013    6.2975    1.8039 C.ar      1 UNK         0.0000 
     76 O76        -3.1038    5.8474    1.0255 O.co2     1 UNK         0.0000 
     77 C77        -2.5513    7.3128    2.7351 C.ar      1 UNK         0.0000 
     78 O78        -3.7445    7.7565    2.8661 O.co2     1 UNK         0.0000 
     79 C79        -1.5925    7.8159    3.6114 C.ar      1 UNK         0.0000 
     80 C80        -0.2957    7.3170    3.5904 C.ar      1 UNK         0.0000 
     81 C81         0.0563    6.3133    2.6934 C.ar      1 UNK         0.0000 
     82 H82        -9.0705    4.1011    5.7165 H         1 UNK         0.0000 
     83 H83        -6.9602    3.3851    6.7160 H         1 UNK         0.0000 
     84 H84        -4.8404    3.7970    5.5237 H         1 UNK         0.0000 
     85 H85       -10.5005    5.0848    4.8655 H         1 UNK         0.0000 
     86 H86       -10.7152    2.5078    3.2301 H         1 UNK         0.0000 
     87 H87       -10.9179    3.1889    1.6551 H         1 UNK         0.0000 
     88 H88       -13.0929    1.8990    3.3198 H         1 UNK         0.0000 
     89 H89       -12.1784    1.0366    2.1127 H         1 UNK         0.0000 
     90 H90       -13.1362    2.8653    0.3898 H         1 UNK         0.0000 
     91 H91       -14.3011    3.1799    1.6603 H         1 UNK         0.0000 
     92 H92       -14.3177    0.9677   -0.0365 H         1 UNK         0.0000 
     93 H93       -15.9507   -0.7400    0.3321 H         1 UNK         0.0000 
     94 H94       -16.8012   -0.8045    1.8144 H         1 UNK         0.0000 
     95 H95       -11.0503    5.6941    1.1166 H         1 UNK         0.0000 
     96 H96       -12.9032    7.5137    0.3518 H         1 UNK         0.0000 
     97 H97       -13.8553    6.0529    0.0885 H         1 UNK         0.0000 
     98 H98       -10.5912    7.3047   -0.6389 H         1 UNK         0.0000 
     99 H99        -9.7116    7.3718   -2.9572 H         1 UNK         0.0000 
    100 H100      -10.3869    5.7425   -3.1521 H         1 UNK         0.0000 
    101 H101       -7.9830    5.0195   -3.1515 H         1 UNK         0.0000 
    102 H102       -6.0680    3.6532   -3.3578 H         1 UNK         0.0000 
    103 H103       -5.7109    2.8148   -1.9309 H         1 UNK         0.0000 
    104 H104       -6.4679    5.3763   -4.2519 H         1 UNK         0.0000 
    105 H105       -5.9227    6.5206   -5.3533 H         1 UNK         0.0000 
    106 H106       -7.2979    7.4404   -3.3488 H         1 UNK         0.0000 
    107 H107       -5.9840    8.2636   -3.9981 H         1 UNK         0.0000 
    108 H108       -5.9464    8.6874   -1.7830 H         1 UNK         0.0000 
    109 H109       -4.4991    7.8181   -2.1818 H         1 UNK         0.0000 
    110 H110       -2.8038    4.7534   -5.3230 H         1 UNK         0.0000 
    111 H111       -2.6431    2.5772   -6.4493 H         1 UNK         0.0000 
    112 H112       -4.0110    1.5083   -6.0813 H         1 UNK         0.0000 
    113 H113       -3.6940    2.2367   -3.6491 H         1 UNK         0.0000 
    114 H114       -1.7674    1.2054   -2.0021 H         1 UNK         0.0000 
    115 H115       -2.2962    2.8404   -1.9395 H         1 UNK         0.0000 
    116 H116       -0.1523    2.3893   -0.8957 H         1 UNK         0.0000 
    117 H117        3.3140    5.0618   -0.6142 H         1 UNK         0.0000 
    118 H118        2.2793    6.2117   -1.3730 H         1 UNK         0.0000 
    119 H119        4.0214    5.7864   -2.9007 H         1 UNK         0.0000 
    120 H120        2.5199    5.2186   -3.5472 H         1 UNK         0.0000 
    121 H121        4.1928    3.2006   -2.1070 H         1 UNK         0.0000 
    122 H122        4.8805    3.7160   -3.6177 H         1 UNK         0.0000 
    123 H123        2.4120    2.1866   -2.9206 H         1 UNK         0.0000 
    124 H124        4.1981    3.5996   -5.6345 H         1 UNK         0.0000 
    125 H125        3.3469    2.7306   -6.8491 H         1 UNK         0.0000 
    126 H126        0.7945    6.0786    0.1177 H         1 UNK         0.0000 
    127 H127       -1.8725    8.5747    4.3336 H         1 UNK         0.0000 
    128 H128        0.4232    7.6841    4.3004 H         1 UNK         0.0000 
    129 H129        1.0654    5.9205    2.7142 H         1 UNK         0.0000 
    130 Fe130      -4.8744    6.3693    1.8565 Fe        1 UNK         0.0000 
@<TRIPOS>BOND
     1    1    2 ar   
     2    1    8 ar   
     3    1   82 1    
     4    2    3 ar   
     5    2   83 1    
     6    3    4 ar   
     7    3   84 1    
     8    4    5 1    
     9    4    6 ar   
    10    5  130 nc   
    11    6    7 1    
    12    6    8 ar   
    13    7  130 nc   
    14    8    9 1    
    15    9   10 2    
    16    9   11 am   BACKBONE|DICT|INTERRES
    17   11   85 1    
    18   11   12 1    
    19   12   14 1    
    20   12   23 1    
    21   12   13 1    
    22   14   15 1    
    23   14   86 1    
    24   14   87 1    
    25   15   16 1    
    26   15   88 1    
    27   15   89 1    
    28   16   17 1    
    29   16   90 1    
    30   16   91 1    
    31   17   18 ar   
    32   17   92 1    
    33   18   19 ar   
    34   18   20 ar   
    35   19   93 1    
    36   19   94 1    
    37   20   21 1    
    38   20   22 1    
    39   23   24 2    
    40   23   25 am   BACKBONE|DICT|INTERRES
    41   25   26 1    
    42   25   95 1    
    43   26   27 1    
    44   26   96 1    
    45   26   97 1    
    46   27   28 2    
    47   27   29 am   BACKBONE|DICT|INTERRES
    48   29   30 1    
    49   29   98 1    
    50   30   31 1    
    51   30   99 1    
    52   30  100 1    
    53   31   32 2    
    54   31   33 am   BACKBONE|DICT|INTERRES
    55   33   34 1    
    56   33  101 1    
    57   34   35 1    
    58   34   36 1    
    59   34   38 1    
    60   36   37 2    
    61   36   47 am   BACKBONE|DICT|INTERRES
    62   37  130 nc   
    63   38   39 1    
    64   38  102 1    
    65   38  103 1    
    66   39   40 1    
    67   40   41 2    
    68   40   42 1    
    69   42   44 1    
    70   42   49 1    
    71   42   43 1    
    72   44   45 1    
    73   44  104 1    
    74   44  105 1    
    75   45   46 1    
    76   45  106 1    
    77   45  107 1    
    78   46   47 1    
    79   46  108 1    
    80   46  109 1    
    81   47   48 1    
    82   48  130 nc   
    83   49   50 am   BACKBONE|DICT|INTERRES
    84   49  110 1    
    85   50   51 2    
    86   50   52 1    
    87   52   53 1    
    88   52  111 1    
    89   52  112 1    
    90   53   54 am   BACKBONE|DICT|INTERRES
    91   53  113 1    
    92   54   55 2    
    93   54   56 1    
    94   56   57 1    
    95   56  114 1    
    96   56  115 1    
    97   57   58 am   BACKBONE|DICT|INTERRES
    98   57  116 1    
    99   58   59 2    
   100   58   60 1    
   101   60   61 1    
   102   60   62 1    
   103   60   71 1    
   104   62   63 1    
   105   62  117 1    
   106   62  118 1    
   107   63   64 1    
   108   63  119 1    
   109   63  120 1    
   110   64   65 1    
   111   64  121 1    
   112   64  122 1    
   113   65   66 ar   
   114   65  123 1    
   115   66   67 ar   
   116   66   68 ar   
   117   67  124 1    
   118   67  125 1    
   119   68   69 1    
   120   68   70 1    
   121   71   72 am   BACKBONE|DICT|INTERRES
   122   71  126 1    
   123   72   73 2    
   124   72   74 1    
   125   74   75 ar   
   126   74   81 ar   
   127   75   76 1    
   128   75   77 ar   
   129   76  130 nc   
   130   77   78 1    
   131   77   79 ar   
   132   78  130 nc   
   133   79   80 ar   
   134   79  127 1    
   135   80   81 ar   
   136   80  128 1    
   137   81  129 1    
@<TRIPOS>SUBSTRUCTURE
     1 UNK         1 GROUP             0       ****    0 ROOT    
@<TRIPOS>MOLECULE
164_c1
132   138    1
SMALL
USER_CHARGES


@<TRIPOS>ATOM
      1 C1          8.5063  -12.7187   -2.6455 C.ar      1 UNK         0.0000 
      2 C2          7.2331  -13.2523   -2.8447 C.ar      1 UNK         0.0000 
      3 C3          6.8592  -14.4171   -2.1911 C.ar      1 UNK         0.0000 
      4 C4          7.7607  -15.0707   -1.3541 C.ar      1 UNK         0.0000 
      5 O5          7.3830  -16.1365   -0.7950 O.co2     1 UNK         0.0000 
      6 C6          9.0599  -14.5540   -1.1527 C.ar      1 UNK         0.0000 
      7 O7          9.9018  -15.2255   -0.4557 O.co2     1 UNK         0.0000 
      8 C8          9.3913  -13.2958   -1.7227 C.ar      1 UNK         0.0000 
      9 C9         10.6178  -12.5257   -1.2806 C.2       1 UNK         0.0000 
     10 O10        11.7584  -12.7700   -1.6663 O.2       1 UNK         0.0000 
     11 N11        10.5095  -11.5395   -0.3834 N.am      1 UNK         0.0000 
     12 C12         9.8725  -10.2201   -0.5365 C.3       1 UNK         0.0000 
     13 H13        10.4190   -9.7718   -1.3730 H         1 UNK         0.0000 
     14 C14        10.2292   -9.3440    0.7134 C.3       1 UNK         0.0000 
     15 C15         9.4617   -7.9980    0.8259 C.3       1 UNK         0.0000 
     16 C16         9.7203   -7.1959    2.1086 C.3       1 UNK         0.0000 
     17 N17         8.8230   -6.0226    2.1335 N.pl3     1 UNK         0.0000 
     18 C18         9.1256   -4.7225    1.9983 C.cat     1 UNK         0.0000 
     19 N19         8.1326   -3.8376    1.9446 N.pl3     1 UNK         0.0000 
     20 N20        10.3840   -4.3078    1.9197 N.pl3     1 UNK         0.0000 
     21 H21        11.1492   -4.9641    1.9661 H         1 UNK         0.0000 
     22 H22        10.6455   -3.3318    1.8525 H         1 UNK         0.0000 
     23 C23         8.3854  -10.0568   -0.9878 C.2       1 UNK         0.0000 
     24 O24         8.1492   -9.2063   -1.8448 O.2       1 UNK         0.0000 
     25 N25         7.3463  -10.7185   -0.4651 N.am      1 UNK         0.0000 
     26 C26         7.2776  -11.8130    0.4959 C.3       1 UNK         0.0000 
     27 C27         7.8039  -11.4635    1.8815 C.2       1 UNK         0.0000 
     28 O28         7.5556  -10.3711    2.4053 O.2       1 UNK         0.0000 
     29 N29         8.5135  -12.4321    2.4614 N.am      1 UNK         0.0000 
     30 C30         8.7428  -12.5654    3.9032 C.3       1 UNK         0.0000 
     31 C31         8.0031  -13.8282    4.3703 C.2       1 UNK         0.0000 
     32 O32         7.3465  -13.8067    5.4086 O.2       1 UNK         0.0000 
     33 N33         8.0851  -14.8949    3.5708 N.am      1 UNK         0.0000 
     34 C34         7.2823  -16.1091    3.5134 C.3       1 UNK         0.0000 
     35 H35         7.4130  -16.6957    4.4220 H         1 UNK         0.0000 
     36 C36         5.8047  -15.7148    3.2593 C.3       1 UNK         0.0000 
     37 O37         5.6260  -14.9153    2.0976 O.3       1 UNK         0.0000 
     38 C38         7.8861  -16.8943    2.3302 C.2       1 UNK         0.0000 
     39 O39         8.7726  -16.3382    1.6787 O.co2     1 UNK         0.0000 
     40 N40         7.4127  -18.0847    1.8991 N.am      1 UNK         0.0000 
     41 O41         7.8129  -18.5772    0.7079 O.co2     1 UNK         0.0000 
     42 C42         6.4789  -18.9639    2.6523 C.3       1 UNK         0.0000 
     43 C43         6.9580  -20.4262    2.8527 C.3       1 UNK         0.0000 
     44 C44         8.3093  -20.5473    3.5935 C.3       1 UNK         0.0000 
     45 C45         8.7155  -22.0025    4.0201 C.3       1 UNK         0.0000 
     46 H46         7.8711  -22.4836    4.5233 H         1 UNK         0.0000 
     47 C47         9.0272  -23.0823    2.9006 C.2       1 UNK         0.0000 
     48 O48         8.7735  -22.7877    1.7111 O.co2     1 UNK         0.0000 
     49 O49         9.4151  -24.1910    3.3499 O.co2     1 UNK         0.0000 
     50 N50         9.8778  -21.9563    4.9309 N.am      1 UNK         0.0000 
     51 C51         9.8784  -22.1830    6.2554 C.2       1 UNK         0.0000 
     52 O52         8.8507  -22.3040    6.9223 O.2       1 UNK         0.0000 
     53 C53        11.2362  -22.3122    6.9604 C.3       1 UNK         0.0000 
     54 N54        12.2221  -22.8822    6.0396 N.am      1 UNK         0.0000 
     55 C55        12.4795  -24.1922    5.9207 C.2       1 UNK         0.0000 
     56 O56        12.1831  -25.0207    6.7846 O.2       1 UNK         0.0000 
     57 C57        13.2768  -24.6557    4.6850 C.3       1 UNK         0.0000 
     58 N58        14.0426  -23.5819    4.0152 N.am      1 UNK         0.0000 
     59 C59        13.4741  -22.5997    3.2900 C.2       1 UNK         0.0000 
     60 O60        12.2645  -22.4567    3.2770 O.2       1 UNK         0.0000 
     61 C61        14.4021  -21.5966    2.5392 C.3       1 UNK         0.0000 
     62 H62        15.2039  -22.2010    2.1091 H         1 UNK         0.0000 
     63 C63        15.0484  -20.5263    3.4949 C.3       1 UNK         0.0000 
     64 C64        15.8462  -21.0319    4.7180 C.3       1 UNK         0.0000 
     65 C65        17.1720  -21.7400    4.3601 C.3       1 UNK         0.0000 
     66 N66        17.7842  -22.3925    5.5399 N.pl3     1 UNK         0.0000 
     67 C67        18.3697  -21.7953    6.5907 C.cat     1 UNK         0.0000 
     68 N68        18.8178  -22.5433    7.6002 N.pl3     1 UNK         0.0000 
     69 N69        18.5101  -20.4746    6.6305 N.pl3     1 UNK         0.0000 
     70 H70        18.1764  -19.8968    5.8709 H         1 UNK         0.0000 
     71 H71        18.9559  -19.9821    7.3958 H         1 UNK         0.0000 
     72 N72        13.7377  -20.9625    1.3870 N.am      1 UNK         0.0000 
     73 C73        12.6973  -20.1041    1.3824 C.2       1 UNK         0.0000 
     74 O74        12.3566  -19.5663    2.4406 O.2       1 UNK         0.0000 
     75 C75        12.0375  -19.9166    0.0001 C.ar      1 UNK         0.0000 
     76 C76        11.0935  -18.8792   -0.2837 C.ar      1 UNK         0.0000 
     77 O77        10.7896  -17.9976    0.5900 O.co2     1 UNK         0.0000 
     78 C78        10.4439  -18.8394   -1.5552 C.ar      1 UNK         0.0000 
     79 C79        10.7756  -19.7749   -2.5313 C.ar      1 UNK         0.0000 
     80 C80        11.7139  -20.7638   -2.2893 C.ar      1 UNK         0.0000 
     81 C81        12.3256  -20.8429   -1.0366 C.ar      1 UNK         0.0000 
     82 H82         8.7882  -11.8093   -3.1516 H         1 UNK         0.0000 
     83 H83         6.5342  -12.7612   -3.4904 H         1 UNK         0.0000 
     84 H84         5.8785  -14.8496   -2.3568 H         1 UNK         0.0000 
     85 H85        11.4782  -11.4549   -0.1492 H         1 UNK         0.0000 
     86 H86        11.3039   -9.1526    0.7052 H         1 UNK         0.0000 
     87 H87        10.0695   -9.9380    1.6205 H         1 UNK         0.0000 
     88 H88         9.6790   -7.3831   -0.0550 H         1 UNK         0.0000 
     89 H89         8.3796   -8.1687    0.8058 H         1 UNK         0.0000 
     90 H90        10.7695   -6.9019    2.1994 H         1 UNK         0.0000 
     91 H91         9.4815   -7.8264    2.9718 H         1 UNK         0.0000 
     92 H92         7.8563   -6.3180    2.2249 H         1 UNK         0.0000 
     93 H93         7.1602   -4.1116    1.9928 H         1 UNK         0.0000 
     94 H94         8.3096   -2.8526    1.8332 H         1 UNK         0.0000 
     95 H95         6.4499  -10.4751   -0.8545 H         1 UNK         0.0000 
     96 H96         7.7526  -12.7127    0.1354 H         1 UNK         0.0000 
     97 H97         6.2297  -12.0843    0.5899 H         1 UNK         0.0000 
     98 H98         8.6984  -13.2465    1.8802 H         1 UNK         0.0000 
     99 H99         8.3745  -11.6929    4.4552 H         1 UNK         0.0000 
    100 H100        9.8100  -12.6794    4.1100 H         1 UNK         0.0000 
    101 H101        8.7039  -14.9072    2.7653 H         1 UNK         0.0000 
    102 H102        5.2000  -16.6079    3.1544 H         1 UNK         0.0000 
    103 H103        5.4155  -15.1711    4.1170 H         1 UNK         0.0000 
    104 H104        5.9859  -15.3801    1.3134 H         1 UNK         0.0000 
    105 H105        5.5321  -18.9670    2.1152 H         1 UNK         0.0000 
    106 H106        6.2575  -18.5651    3.6517 H         1 UNK         0.0000 
    107 H107        7.0370  -20.9124    1.8798 H         1 UNK         0.0000 
    108 H108        6.2060  -20.9804    3.4025 H         1 UNK         0.0000 
    109 H109        8.2600  -19.9312    4.4915 H         1 UNK         0.0000 
    110 H110        9.0945  -20.0986    2.9729 H         1 UNK         0.0000 
    111 H111       10.7347  -21.9385    4.3832 H         1 UNK         0.0000 
    112 H112       11.1099  -22.9250    7.8562 H         1 UNK         0.0000 
    113 H113       11.5488  -21.3175    7.2812 H         1 UNK         0.0000 
    114 H114       12.3919  -22.3578    5.1841 H         1 UNK         0.0000 
    115 H115       12.5843  -25.1104    3.9707 H         1 UNK         0.0000 
    116 H116       13.9626  -25.4366    5.0062 H         1 UNK         0.0000 
    117 H117       15.0415  -23.6279    4.0752 H         1 UNK         0.0000 
    118 H118       14.2634  -19.8914    3.9125 H         1 UNK         0.0000 
    119 H119       15.6654  -19.8524    2.8943 H         1 UNK         0.0000 
    120 H120       15.2414  -21.6159    5.4204 H         1 UNK         0.0000 
    121 H121       16.1007  -20.1220    5.2711 H         1 UNK         0.0000 
    122 H122       17.0436  -22.4515    3.5373 H         1 UNK         0.0000 
    123 H123       17.8929  -20.9925    4.0106 H         1 UNK         0.0000 
    124 H124       17.7202  -23.4042    5.5163 H         1 UNK         0.0000 
    125 H125       18.7118  -23.5498    7.6220 H         1 UNK         0.0000 
    126 H126       19.2937  -22.1379    8.3931 H         1 UNK         0.0000 
    127 H127       13.8315  -21.3908    0.4851 H         1 UNK         0.0000 
    128 H128       10.2590  -19.7486   -3.4816 H         1 UNK         0.0000 
    129 H129       11.9320  -21.4805   -3.0624 H         1 UNK         0.0000 
    130 H130       13.0035  -21.6692   -0.8817 H         1 UNK         0.0000 
    131 Fe131       9.0567  -17.0966   -0.1047 Fe        1 UNK         0.0000 
    132 O132        9.5250  -17.9958   -1.8429 O.co2     1 UNK         0.0000 
@<TRIPOS>BOND
     1    1    2 ar   
     2    1    8 ar   
     3    1   82 1    
     4    2    3 ar   
     5    2   83 1    
     6    3    4 ar   
     7    3   84 1    
     8    4    5 1    
     9    4    6 ar   
    10    5  131 nc   
    11    6    7 1    
    12    6    8 ar   
    13    7  131 nc   
    14    8    9 1    
    15    9   10 2    
    16    9   11 am   BACKBONE|DICT|INTERRES
    17   11   85 1    
    18   11   12 1    
    19   12   14 1    
    20   12   23 1    
    21   12   13 1    
    22   14   15 1    
    23   14   86 1    
    24   14   87 1    
    25   15   16 1    
    26   15   88 1    
    27   15   89 1    
    28   16   17 1    
    29   16   90 1    
    30   16   91 1    
    31   17   18 ar   
    32   17   92 1    
    33   18   19 ar   
    34   18   20 ar   
    35   19   93 1    
    36   19   94 1    
    37   20   21 1    
    38   20   22 1    
    39   23   24 2    
    40   23   25 am   BACKBONE|DICT|INTERRES
    41   25   26 1    
    42   25   95 1    
    43   26   27 1    
    44   26   96 1    
    45   26   97 1    
    46   27   28 2    
    47   27   29 am   BACKBONE|DICT|INTERRES
    48   29   30 1    
    49   29   98 1    
    50   30   31 1    
    51   30   99 1    
    52   30  100 1    
    53   31   32 2    
    54   31   33 am   BACKBONE|DICT|INTERRES
    55   33   34 1    
    56   33  101 1    
    57   34   35 1    
    58   34   36 1    
    59   34   38 1    
    60   36   37 1    
    61   36  102 1    
    62   36  103 1    
    63   37  104 1    
    64   38   39 2    
    65   38   40 am   BACKBONE|DICT|INTERRES
    66   39  131 nc   
    67   40   41 1    
    68   40   42 1    
    69   41  131 nc   
    70   42   43 1    
    71   42  105 1    
    72   42  106 1    
    73   43   44 1    
    74   43  107 1    
    75   43  108 1    
    76   44   45 1    
    77   44  109 1    
    78   44  110 1    
    79   45   46 1    
    80   45   47 1    
    81   45   50 1    
    82   47   48 1    
    83   47   49 2    
    84   50   51 am   BACKBONE|DICT|INTERRES
    85   50  111 1    
    86   51   52 2    
    87   51   53 1    
    88   53   54 1    
    89   53  112 1    
    90   53  113 1    
    91   54   55 am   BACKBONE|DICT|INTERRES
    92   54  114 1    
    93   55   56 2    
    94   55   57 1    
    95   57   58 1    
    96   57  115 1    
    97   57  116 1    
    98   58   59 am   BACKBONE|DICT|INTERRES
    99   58  117 1    
   100   59   60 2    
   101   59   61 1    
   102   61   62 1    
   103   61   63 1    
   104   61   72 1    
   105   63   64 1    
   106   63  118 1    
   107   63  119 1    
   108   64   65 1    
   109   64  120 1    
   110   64  121 1    
   111   65   66 1    
   112   65  122 1    
   113   65  123 1    
   114   66   67 ar   
   115   66  124 1    
   116   67   68 ar   
   117   67   69 ar   
   118   68  125 1    
   119   68  126 1    
   120   69   70 1    
   121   69   71 1    
   122   72   73 am   BACKBONE|DICT|INTERRES
   123   72  127 1    
   124   73   74 2    
   125   73   75 1    
   126   75   76 ar   
   127   75   81 ar   
   128   76   77 1    
   129   76   78 ar   
   130   77  131 nc   
   131   78   79 ar   
   132   78  132 1    
   133   79   80 ar   
   134   79  128 1    
   135   80   81 ar   
   136   80  129 1    
   137   81  130 1    
   138  131  132 nc   
@<TRIPOS>SUBSTRUCTURE
     1 UNK         1 GROUP             0       ****    0 ROOT    
@<TRIPOS>MOLECULE
165_c1
134   140    1
SMALL
USER_CHARGES


@<TRIPOS>ATOM
      1 C1         -8.2716   10.0062   -1.2387 C.ar      1 UNK         0.0000 
      2 C2         -7.2507   10.9130   -1.4368 C.ar      1 UNK         0.0000 
      3 C3         -5.9463   10.5394   -1.1359 C.ar      1 UNK         0.0000 
      4 C4         -5.6365    9.2331   -0.7594 C.ar      1 UNK         0.0000 
      5 O5         -4.4164    9.0793   -0.4216 O.co2     1 UNK         0.0000 
      6 C6         -6.6458    8.2320   -0.7280 C.ar      1 UNK         0.0000 
      7 O7         -6.3438    6.9690   -0.6644 O.co2     1 UNK         0.0000 
      8 C8         -8.0068    8.6768   -0.7951 C.ar      1 UNK         0.0000 
      9 C9         -9.1657    7.8641   -0.2135 C.2       1 UNK         0.0000 
     10 O10        -9.0155    7.0075    0.6587 O.2       1 UNK         0.0000 
     11 N11       -10.3941    8.2973   -0.5497 N.am      1 UNK         0.0000 
     12 C12       -11.6878    8.1643    0.1399 C.3       1 UNK         0.0000 
     13 H13       -12.1231    9.1195   -0.1605 H         1 UNK         0.0000 
     14 C14       -11.5827    8.2952    1.6966 C.3       1 UNK         0.0000 
     15 C15       -12.8309    8.6762    2.5408 C.3       1 UNK         0.0000 
     16 C16       -14.0782    7.7614    2.4612 C.3       1 UNK         0.0000 
     17 N17       -14.8964    7.8433    3.6930 N.pl3     1 UNK         0.0000 
     18 C18       -16.1965    8.1419    3.8413 C.cat     1 UNK         0.0000 
     19 N19       -16.7482    8.0661    5.0558 N.pl3     1 UNK         0.0000 
     20 N20       -16.9495    8.5201    2.8065 N.pl3     1 UNK         0.0000 
     21 H21       -16.5503    8.5652    1.8777 H         1 UNK         0.0000 
     22 H22       -17.9281    8.7617    2.8874 H         1 UNK         0.0000 
     23 C23       -12.7236    7.1431   -0.4205 C.2       1 UNK         0.0000 
     24 O24       -13.8379    7.5819   -0.7078 O.2       1 UNK         0.0000 
     25 N25       -12.4913    5.8344   -0.6015 N.am      1 UNK         0.0000 
     26 C26       -11.3683    4.9925   -0.1854 C.3       1 UNK         0.0000 
     27 C27       -11.3505    4.8608    1.3437 C.2       1 UNK         0.0000 
     28 O28       -12.4070    4.7339    1.9677 O.2       1 UNK         0.0000 
     29 N29       -10.1716    4.9513    1.9560 N.am      1 UNK         0.0000 
     30 C30       -10.0479    5.1203    3.3992 C.3       1 UNK         0.0000 
     31 C31        -8.5899    5.0619    3.8587 C.2       1 UNK         0.0000 
     32 O32        -8.3884    4.6532    5.0010 O.2       1 UNK         0.0000 
     33 N33        -7.5874    5.3922    3.0288 N.am      1 UNK         0.0000 
     34 C34        -6.2002    5.0410    3.3405 C.3       1 UNK         0.0000 
     35 H35        -6.0065    5.2660    4.3925 H         1 UNK         0.0000 
     36 C36        -6.0285    3.5014    3.1115 C.3       1 UNK         0.0000 
     37 O37        -4.7764    2.9865    3.5126 O.3       1 UNK         0.0000 
     38 C38        -5.2000    5.9208    2.5569 C.2       1 UNK         0.0000 
     39 O39        -5.4891    6.9561    1.9593 O.co2     1 UNK         0.0000 
     40 N40        -4.0037    5.4037    2.3079 N.am      1 UNK         0.0000 
     41 O41        -3.7657    4.8589    1.1174 O.co2     1 UNK         0.0000 
     42 C42        -2.8220    5.7683    3.1408 C.3       1 UNK         0.0000 
     43 C43        -2.8648    7.2016    3.7958 C.3       1 UNK         0.0000 
     44 C44        -1.5539    7.9430    4.2387 C.3       1 UNK         0.0000 
     45 C45        -1.0045    9.0748    3.2886 C.3       1 UNK         0.0000 
     46 H46        -0.5560    8.5789    2.4366 H         1 UNK         0.0000 
     47 C47        -2.1079   10.0415    2.7725 C.2       1 UNK         0.0000 
     48 O48        -2.6881   10.8140    3.5329 O.2       1 UNK         0.0000 
     49 N49        -2.4019    9.9548    1.4891 N.am      1 UNK         0.0000 
     50 N50         0.1171    9.8595    3.8281 N.am      1 UNK         0.0000 
     51 C51         0.9146   10.5968    3.0352 C.2       1 UNK         0.0000 
     52 O52         0.9219   10.5277    1.8027 O.2       1 UNK         0.0000 
     53 C53         1.9148   11.5509    3.6870 C.3       1 UNK         0.0000 
     54 N54         3.0924   11.3242    2.8684 N.am      1 UNK         0.0000 
     55 C55         4.2544   10.9339    3.3710 C.2       1 UNK         0.0000 
     56 O56         4.6601   11.2412    4.4920 O.2       1 UNK         0.0000 
     57 C57         5.0041    9.8784    2.5735 C.3       1 UNK         0.0000 
     58 N58         4.7841    8.7506    3.4695 N.am      1 UNK         0.0000 
     59 C59         3.9779    7.6876    3.3398 C.2       1 UNK         0.0000 
     60 O60         3.6473    7.0933    4.3665 O.2       1 UNK         0.0000 
     61 C61         3.6593    7.0579    1.9503 C.3       1 UNK         0.0000 
     62 H62         3.5860    7.8394    1.1942 H         1 UNK         0.0000 
     63 C63         4.7690    5.9836    1.5965 C.3       1 UNK         0.0000 
     64 C64         5.8522    5.5029    2.6386 C.3       1 UNK         0.0000 
     65 C65         7.1500    6.3520    2.6687 C.3       1 UNK         0.0000 
     66 N66         8.2659    5.8215    3.4889 N.pl3     1 UNK         0.0000 
     67 C67         8.8236    6.3352    4.5960 C.cat     1 UNK         0.0000 
     68 N68        10.0577    5.9557    4.9379 N.pl3     1 UNK         0.0000 
     69 N69         8.1831    7.2272    5.3493 N.pl3     1 UNK         0.0000 
     70 H70         7.2007    7.4083    5.1926 H         1 UNK         0.0000 
     71 H71         8.5910    7.6351    6.1816 H         1 UNK         0.0000 
     72 N72         2.3831    6.3447    2.0531 N.am      1 UNK         0.0000 
     73 C73         1.1143    6.4543    1.6368 C.2       1 UNK         0.0000 
     74 O74         0.3841    6.1366    2.5695 O.2       1 UNK         0.0000 
     75 C75         0.5891    6.7210    0.1955 C.ar      1 UNK         0.0000 
     76 C76        -0.8132    6.9390   -0.0906 C.ar      1 UNK         0.0000 
     77 O77        -1.6661    7.3206    0.7894 O.co2     1 UNK         0.0000 
     78 C78        -1.2989    6.7351   -1.4208 C.ar      1 UNK         0.0000 
     79 O79        -2.5496    6.6547   -1.7440 O.co2     1 UNK         0.0000 
     80 C80        -0.3719    6.5689   -2.4477 C.ar      1 UNK         0.0000 
     81 C81         1.0008    6.5247   -2.2000 C.ar      1 UNK         0.0000 
     82 C82         1.4763    6.5667   -0.8919 C.ar      1 UNK         0.0000 
     83 H83        -9.2796   10.3779   -1.3656 H         1 UNK         0.0000 
     84 H84        -7.4499   11.9268   -1.7544 H         1 UNK         0.0000 
     85 H85        -5.1598   11.2800   -1.1905 H         1 UNK         0.0000 
     86 H86       -10.3727    8.8896   -1.3552 H         1 UNK         0.0000 
     87 H87       -10.8361    9.0614    1.9123 H         1 UNK         0.0000 
     88 H88       -11.1444    7.4032    2.1210 H         1 UNK         0.0000 
     89 H89       -13.1223    9.6617    2.1750 H         1 UNK         0.0000 
     90 H90       -12.5362    8.8286    3.5814 H         1 UNK         0.0000 
     91 H91       -13.8663    6.7308    2.1831 H         1 UNK         0.0000 
     92 H92       -14.7044    8.1557    1.6632 H         1 UNK         0.0000 
     93 H93       -14.3601    7.5194    4.4887 H         1 UNK         0.0000 
     94 H94       -16.2223    7.7566    5.8633 H         1 UNK         0.0000 
     95 H95       -17.7209    8.2908    5.2228 H         1 UNK         0.0000 
     96 H96       -13.2792    5.3202   -0.9664 H         1 UNK         0.0000 
     97 H97       -10.4244    5.3413   -0.5994 H         1 UNK         0.0000 
     98 H98       -11.5362    3.9984   -0.5993 H         1 UNK         0.0000 
     99 H99        -9.3653    5.2239    1.3961 H         1 UNK         0.0000 
    100 H100      -10.6130    4.3415    3.9161 H         1 UNK         0.0000 
    101 H101      -10.4660    6.0785    3.7096 H         1 UNK         0.0000 
    102 H102       -7.7088    5.8882    2.1467 H         1 UNK         0.0000 
    103 H103       -6.1393    3.2719    2.0538 H         1 UNK         0.0000 
    104 H104       -6.7955    2.9309    3.6326 H         1 UNK         0.0000 
    105 H105       -4.1299    3.4132    2.9175 H         1 UNK         0.0000 
    106 H106       -1.9303    5.6642    2.5303 H         1 UNK         0.0000 
    107 H107       -2.6969    4.9979    3.9013 H         1 UNK         0.0000 
    108 H108       -3.4999    7.1056    4.6742 H         1 UNK         0.0000 
    109 H109       -3.4090    7.8530    3.1226 H         1 UNK         0.0000 
    110 H110       -0.7743    7.2096    4.4361 H         1 UNK         0.0000 
    111 H111       -1.7707    8.3970    5.2026 H         1 UNK         0.0000 
    112 H112       -1.9332    9.2064    0.9590 H         1 UNK         0.0000 
    113 H113       -3.1902   10.4239    1.0676 H         1 UNK         0.0000 
    114 H114        0.1331    9.9504    4.8256 H         1 UNK         0.0000 
    115 H115        2.0462   11.3407    4.7509 H         1 UNK         0.0000 
    116 H116        1.5800   12.5769    3.5510 H         1 UNK         0.0000 
    117 H117        2.8014   11.0222    1.9416 H         1 UNK         0.0000 
    118 H118        6.0559   10.1623    2.5503 H         1 UNK         0.0000 
    119 H119        4.6391    9.7539    1.5525 H         1 UNK         0.0000 
    120 H120        4.8935    9.0464    4.4338 H         1 UNK         0.0000 
    121 H121        5.2732    6.2746    0.6748 H         1 UNK         0.0000 
    122 H122        4.2538    5.0617    1.3183 H         1 UNK         0.0000 
    123 H123        6.1537    4.5317    2.2444 H         1 UNK         0.0000 
    124 H124        5.4572    5.2622    3.6292 H         1 UNK         0.0000 
    125 H125        7.5813    6.2453    1.6733 H         1 UNK         0.0000 
    126 H126        6.9943    7.4249    2.7717 H         1 UNK         0.0000 
    127 H127        8.6907    4.9980    3.0795 H         1 UNK         0.0000 
    128 H128       10.6144    5.3382    4.3598 H         1 UNK         0.0000 
    129 H129       10.5316    6.3316    5.7500 H         1 UNK         0.0000 
    130 H130        2.2168    6.0419    2.9971 H         1 UNK         0.0000 
    131 H131       -0.7342    6.4759   -3.4678 H         1 UNK         0.0000 
    132 H132        1.6725    6.4139   -3.0426 H         1 UNK         0.0000 
    133 H133        2.5399    6.4339   -0.7299 H         1 UNK         0.0000 
    134 Fe134      -4.0066    6.9057    0.0485 Fe        1 UNK         0.0000 
@<TRIPOS>BOND
     1    1    2 ar   
     2    1    8 ar   
     3    1   83 1    
     4    2    3 ar   
     5    2   84 1    
     6    3    4 ar   
     7    3   85 1    
     8    4    5 1    
     9    4    6 ar   
    10    5  134 nc   
    11    6    7 1    
    12    6    8 ar   
    13    7  134 nc   
    14    8    9 1    
    15    9   10 2    
    16    9   11 am   BACKBONE|DICT|INTERRES
    17   11   86 1    
    18   11   12 1    
    19   12   14 1    
    20   12   23 1    
    21   12   13 1    
    22   14   15 1    
    23   14   87 1    
    24   14   88 1    
    25   15   16 1    
    26   15   89 1    
    27   15   90 1    
    28   16   17 1    
    29   16   91 1    
    30   16   92 1    
    31   17   18 ar   
    32   17   93 1    
    33   18   19 ar   
    34   18   20 ar   
    35   19   94 1    
    36   19   95 1    
    37   20   21 1    
    38   20   22 1    
    39   23   24 2    
    40   23   25 am   BACKBONE|DICT|INTERRES
    41   25   26 1    
    42   25   96 1    
    43   26   27 1    
    44   26   97 1    
    45   26   98 1    
    46   27   28 2    
    47   27   29 am   BACKBONE|DICT|INTERRES
    48   29   30 1    
    49   29   99 1    
    50   30   31 1    
    51   30  100 1    
    52   30  101 1    
    53   31   32 2    
    54   31   33 am   BACKBONE|DICT|INTERRES
    55   33   34 1    
    56   33  102 1    
    57   34   35 1    
    58   34   36 1    
    59   34   38 1    
    60   36   37 1    
    61   36  103 1    
    62   36  104 1    
    63   37  105 1    
    64   38   39 2    
    65   38   40 am   BACKBONE|DICT|INTERRES
    66   39  134 nc   
    67   40   41 1    
    68   40   42 1    
    69   41  134 nc   
    70   42   43 1    
    71   42  106 1    
    72   42  107 1    
    73   43   44 1    
    74   43  108 1    
    75   43  109 1    
    76   44   45 1    
    77   44  110 1    
    78   44  111 1    
    79   45   46 1    
    80   45   47 1    
    81   45   50 1    
    82   47   48 2    
    83   47   49 am   BACKBONE|DICT|INTERRES
    84   49  112 1    
    85   49  113 1    
    86   50   51 am   BACKBONE|DICT|INTERRES
    87   50  114 1    
    88   51   52 2    
    89   51   53 1    
    90   53   54 1    
    91   53  115 1    
    92   53  116 1    
    93   54   55 am   BACKBONE|DICT|INTERRES
    94   54  117 1    
    95   55   56 2    
    96   55   57 1    
    97   57   58 1    
    98   57  118 1    
    99   57  119 1    
   100   58   59 am   BACKBONE|DICT|INTERRES
   101   58  120 1    
   102   59   60 2    
   103   59   61 1    
   104   61   62 1    
   105   61   63 1    
   106   61   72 1    
   107   63   64 1    
   108   63  121 1    
   109   63  122 1    
   110   64   65 1    
   111   64  123 1    
   112   64  124 1    
   113   65   66 1    
   114   65  125 1    
   115   65  126 1    
   116   66   67 ar   
   117   66  127 1    
   118   67   68 ar   
   119   67   69 ar   
   120   68  128 1    
   121   68  129 1    
   122   69   70 1    
   123   69   71 1    
   124   72   73 am   BACKBONE|DICT|INTERRES
   125   72  130 1    
   126   73   74 2    
   127   73   75 1    
   128   75   76 ar   
   129   75   82 ar   
   130   76   77 1    
   131   76   78 ar   
   132   77  134 nc   
   133   78   79 1    
   134   78   80 ar   
   135   79  134 nc   
   136   80   81 ar   
   137   80  131 1    
   138   81   82 ar   
   139   81  132 1    
   140   82  133 1    
@<TRIPOS>SUBSTRUCTURE
     1 UNK         1 GROUP             0       ****    0 ROOT    
@<TRIPOS>MOLECULE
169_c1
109   114    1
SMALL
USER_CHARGES


@<TRIPOS>ATOM
      1 O1         13.9272   38.4162    8.8811 O.3       1 UNK         0.0000 
      2 C2         13.0934   39.4850    9.2838 C.3       1 UNK         0.0000 
      3 C3         13.6502   40.0998   10.5664 C.3       1 UNK         0.0000 
      4 C4         12.8158   41.2672   11.1115 C.2       1 UNK         0.0000 
      5 C5         11.3586   40.9717   11.4240 C.3       1 UNK         0.0000 
      6 C6         13.2425   42.5280   11.3538 C.2       1 UNK         0.0000 
      7 C7         14.5427   43.1239   11.1652 C.2       1 UNK         0.0000 
      8 O8         14.6056   44.2847   10.7488 O.co2     1 UNK         0.0000 
      9 N9         15.7241   42.4997   11.4815 N.am      1 UNK         0.0000 
     10 O10        16.9111   43.0652   11.2284 O.co2     1 UNK         0.0000 
     11 C11        15.8618   41.3598   12.4147 C.3       1 UNK         0.0000 
     12 C12        16.4878   41.8002   13.7397 C.3       1 UNK         0.0000 
     13 C13        16.6011   40.7285   14.8344 C.3       1 UNK         0.0000 
     14 C14        17.1012   41.3367   16.1752 C.3       1 UNK         0.0000 
     15 H15        17.1443   40.5319   16.9098 H         1 UNK         0.0000 
     16 C16        16.0025   42.2892   16.7592 C.2       1 UNK         0.0000 
     17 O17        14.9596   41.9309   17.2903 O.2       1 UNK         0.0000 
     18 N18        16.2890   43.6001   16.6821 N.am      1 UNK         0.0000 
     19 C19        17.4698   44.1236   15.9653 C.3       1 UNK         0.0000 
     20 H20        17.2706   44.0430   14.9041 H         1 UNK         0.0000 
     21 C21        18.7390   43.2309   16.1521 C.2       1 UNK         0.0000 
     22 O22        19.8938   43.6104   16.3218 O.2       1 UNK         0.0000 
     23 N23        18.4730   41.9121   16.1318 N.am      1 UNK         0.0000 
     24 C24        17.7383   45.6286   16.2501 C.3       1 UNK         0.0000 
     25 C25        16.6178   46.5756   15.7286 C.3       1 UNK         0.0000 
     26 C26        16.8651   47.2112   14.3391 C.3       1 UNK         0.0000 
     27 N27        17.1429   46.2556   13.2364 N.am      1 UNK         0.0000 
     28 O28        16.1621   45.3562   13.0291 O.co2     1 UNK         0.0000 
     29 C29        18.2148   46.3754   12.4060 C.2       1 UNK         0.0000 
     30 O30        18.2995   45.6065   11.4376 O.co2     1 UNK         0.0000 
     31 C31        18.9997   47.5791   12.4179 C.2       1 UNK         0.0000 
     32 C32        20.3171   47.6750   12.6953 C.2       1 UNK         0.0000 
     33 C33        21.1653   46.5359   13.2660 C.3       1 UNK         0.0000 
     34 C34        21.0030   49.0031   12.3925 C.3       1 UNK         0.0000 
     35 C35        21.1295   49.2039   10.8643 C.3       1 UNK         0.0000 
     36 O36        21.3092   50.5655   10.4617 O.3       1 UNK         0.0000 
     37 C37        20.5030   51.2291    9.5641 C.2       1 UNK         0.0000 
     38 O38        20.9644   52.1209    8.8450 O.2       1 UNK         0.0000 
     39 C39        19.0187   50.8338    9.5055 C.3       1 UNK         0.0000 
     40 H40        18.7992   50.2563   10.4011 H         1 UNK         0.0000 
     41 N41        18.2235   52.0822    9.5288 N.am      1 UNK         0.0000 
     42 C42        17.2994   52.3876   10.4492 C.2       1 UNK         0.0000 
     43 O43        17.0529   51.6585   11.4001 O.2       1 UNK         0.0000 
     44 C44        16.5360   53.7044   10.2846 C.3       1 UNK         0.0000 
     45 C45        18.6909   50.0097    8.2142 C.3       1 UNK         0.0000 
     46 C46        17.3797   49.1959    8.2818 C.3       1 UNK         0.0000 
     47 C47        17.4383   48.2083    9.4587 C.3       1 UNK         0.0000 
     48 N48        16.6396   46.9835    9.3692 N.am      1 UNK         0.0000 
     49 O49        15.8528   46.8393   10.4379 O.co2     1 UNK         0.0000 
     50 C50        17.0309   45.9253    8.6171 C.2       1 UNK         0.0000 
     51 O51        16.8185   44.8054    9.0769 O.co2     1 UNK         0.0000 
     52 C52        17.7488   46.1218    7.3849 C.2       1 UNK         0.0000 
     53 C53        17.5767   45.3926    6.2549 C.2       1 UNK         0.0000 
     54 C54        18.4409   45.7312    5.0500 C.3       1 UNK         0.0000 
     55 C55        16.5901   44.2212    6.0293 C.3       1 UNK         0.0000 
     56 H56        16.5024   44.0694    4.9574 H         1 UNK         0.0000 
     57 O57        15.2821   44.5843    6.4417 O.3       1 UNK         0.0000 
     58 C58        17.0061   42.8536    6.6494 C.3       1 UNK         0.0000 
     59 O59        18.2506   42.4043    6.1269 O.3       1 UNK         0.0000 
     60 H60        13.5463   37.9796    8.1145 H         1 UNK         0.0000 
     61 H61        12.0832   39.1082    9.4329 H         1 UNK         0.0000 
     62 H62        13.0443   40.2427    8.4995 H         1 UNK         0.0000 
     63 H63        14.6721   40.4043   10.3481 H         1 UNK         0.0000 
     64 H64        13.7276   39.3424   11.3515 H         1 UNK         0.0000 
     65 H65        11.1029   39.9232   11.2954 H         1 UNK         0.0000 
     66 H66        10.7267   41.5693   10.7677 H         1 UNK         0.0000 
     67 H67        11.1405   41.2518   12.4566 H         1 UNK         0.0000 
     68 H68        12.5431   43.2672   11.7206 H         1 UNK         0.0000 
     69 H69        16.4712   40.5757   11.9509 H         1 UNK         0.0000 
     70 H70        14.9206   40.8726   12.6731 H         1 UNK         0.0000 
     71 H71        17.4874   42.2029   13.5590 H         1 UNK         0.0000 
     72 H72        15.8609   42.6178   14.0982 H         1 UNK         0.0000 
     73 H73        17.3073   39.9623   14.5166 H         1 UNK         0.0000 
     74 H74        15.6522   40.2038   14.9739 H         1 UNK         0.0000 
     75 H75        15.6135   44.2319   17.0776 H         1 UNK         0.0000 
     76 H76        19.2827   41.3228   16.2235 H         1 UNK         0.0000 
     77 H77        17.8236   45.7544   17.3325 H         1 UNK         0.0000 
     78 H78        18.6967   45.9352   15.8246 H         1 UNK         0.0000 
     79 H79        16.4938   47.3925   16.4348 H         1 UNK         0.0000 
     80 H80        15.6500   46.0695   15.7169 H         1 UNK         0.0000 
     81 H81        17.6403   47.9765   14.4733 H         1 UNK         0.0000 
     82 H82        15.9810   47.7637   14.0277 H         1 UNK         0.0000 
     83 H83        18.4345   48.4442   12.1083 H         1 UNK         0.0000 
     84 H84        20.7577   46.1847   14.2181 H         1 UNK         0.0000 
     85 H85        22.1949   46.8303   13.4543 H         1 UNK         0.0000 
     86 H86        21.1896   45.6847   12.5882 H         1 UNK         0.0000 
     87 H87        21.9684   49.0682   12.8957 H         1 UNK         0.0000 
     88 H88        20.3929   49.8039   12.8125 H         1 UNK         0.0000 
     89 H89        20.2860   48.7323   10.3542 H         1 UNK         0.0000 
     90 H90        21.9976   48.6467   10.5174 H         1 UNK         0.0000 
     91 H91        18.3736   52.6990    8.7452 H         1 UNK         0.0000 
     92 H92        16.8294   54.2636    9.3980 H         1 UNK         0.0000 
     93 H93        16.7055   54.3341   11.1573 H         1 UNK         0.0000 
     94 H94        15.4658   53.5057   10.2266 H         1 UNK         0.0000 
     95 H95        19.5040   49.3035    8.0077 H         1 UNK         0.0000 
     96 H96        18.6553   50.6715    7.3443 H         1 UNK         0.0000 
     97 H97        17.2190   48.6859    7.3318 H         1 UNK         0.0000 
     98 H98        16.5107   49.8469    8.3924 H         1 UNK         0.0000 
     99 H99        18.4673   47.8808    9.6189 H         1 UNK         0.0000 
    100 H100       17.1823   48.7797   10.3559 H         1 UNK         0.0000 
    101 H101       18.4897   46.9057    7.4375 H         1 UNK         0.0000 
    102 H102       19.1356   46.5418    5.2684 H         1 UNK         0.0000 
    103 H103       17.8080   46.0519    4.2251 H         1 UNK         0.0000 
    104 H104       19.0245   44.8634    4.7518 H         1 UNK         0.0000 
    105 H105       14.9909   45.3426    5.9299 H         1 UNK         0.0000 
    106 H106       17.0869   42.8806    7.7359 H         1 UNK         0.0000 
    107 H107       16.2364   42.1058    6.4560 H         1 UNK         0.0000 
    108 H108       18.1198   42.0677    5.2379 H         1 UNK         0.0000 
    109 Fe109      16.4256   45.0096   11.0232 Fe        1 UNK         0.0000 
@<TRIPOS>BOND
     1    1    2 1    
     2    1   60 1    
     3    2    3 1    
     4    2   61 1    
     5    2   62 1    
     6    3    4 1    
     7    3   63 1    
     8    3   64 1    
     9    4    5 1    
    10    4    6 2    
    11    5   65 1    
    12    5   66 1    
    13    5   67 1    
    14    6    7 1    
    15    6   68 1    
    16    7    8 2    
    17    7    9 am   BACKBONE|DICT|INTERRES
    18    8  109 nc   
    19    9   10 1    
    20    9   11 1    
    21   10  109 nc   
    22   11   12 1    
    23   11   69 1    
    24   11   70 1    
    25   12   13 1    
    26   12   71 1    
    27   12   72 1    
    28   13   73 1    
    29   13   74 1    
    30   13   14 1    
    31   14   16 1    
    32   14   23 1    
    33   14   15 1    
    34   16   17 2    
    35   16   18 am   BACKBONE|DICT|INTERRES
    36   18   19 1    
    37   18   75 1    
    38   19   21 1    
    39   19   24 1    
    40   19   20 1    
    41   21   22 2    
    42   21   23 am   BACKBONE|DICT|INTERRES
    43   23   76 1    
    44   24   25 1    
    45   24   77 1    
    46   24   78 1    
    47   25   26 1    
    48   25   79 1    
    49   25   80 1    
    50   26   27 1    
    51   26   81 1    
    52   26   82 1    
    53   27   28 1    
    54   27   29 am   BACKBONE|DICT|INTERRES
    55   28  109 nc   
    56   29   30 2    
    57   29   31 1    
    58   30  109 nc   
    59   31   32 2    
    60   31   83 1    
    61   32   33 1    
    62   32   34 1    
    63   33   84 1    
    64   33   85 1    
    65   33   86 1    
    66   34   35 1    
    67   34   87 1    
    68   34   88 1    
    69   35   36 1    
    70   35   89 1    
    71   35   90 1    
    72   36   37 1    
    73   37   38 2    
    74   37   39 1    
    75   39   40 1    
    76   39   41 1    
    77   39   45 1    
    78   41   42 am   BACKBONE|DICT|INTERRES
    79   41   91 1    
    80   42   43 2    
    81   42   44 1    
    82   44   92 1    
    83   44   93 1    
    84   44   94 1    
    85   45   46 1    
    86   45   95 1    
    87   45   96 1    
    88   46   47 1    
    89   46   97 1    
    90   46   98 1    
    91   47   48 1    
    92   47   99 1    
    93   47  100 1    
    94   48   49 1    
    95   48   50 am   BACKBONE|DICT|INTERRES
    96   49  109 nc   
    97   50   51 2    
    98   50   52 1    
    99   51  109 nc   
   100   52   53 2    
   101   52  101 1    
   102   53   54 1    
   103   53   55 1    
   104   54  102 1    
   105   54  103 1    
   106   54  104 1    
   107   55   57 1    
   108   55   58 1    
   109   55   56 1    
   110   57  105 1    
   111   58   59 1    
   112   58  106 1    
   113   58  107 1    
   114   59  108 1    
@<TRIPOS>SUBSTRUCTURE
     1 UNK         1 GROUP             0       ****    0 ROOT    
@<TRIPOS>MOLECULE
173_c1
97   102    1
SMALL
USER_CHARGES


@<TRIPOS>ATOM
      1 C1         -4.1880    3.2330   -4.8634 C.3       1 UNK         0.0000 
      2 C2         -3.4141    1.9287   -5.0300 C.2       1 UNK         0.0000 
      3 O3         -2.3975    1.8985   -5.7422 O.co2     1 UNK         0.0000 
      4 N4         -3.7885    0.7756   -4.3965 N.am      1 UNK         0.0000 
      5 O5         -3.0768   -0.3542   -4.4620 O.co2     1 UNK         0.0000 
      6 C6         -5.1191    0.5822   -3.7796 C.3       1 UNK         0.0000 
      7 C7         -6.2558    0.5222   -4.8260 C.3       1 UNK         0.0000 
      8 C8         -7.5377   -0.2260   -4.3777 C.3       1 UNK         0.0000 
      9 C9         -8.6076   -0.4114   -5.5249 C.3       1 UNK         0.0000 
     10 H10        -9.4354    0.2883   -5.3816 H         1 UNK         0.0000 
     11 C11        -9.2448   -1.8456   -5.4285 C.2       1 UNK         0.0000 
     12 O12       -10.3398   -2.1177   -4.9654 O.2       1 UNK         0.0000 
     13 N13        -8.4747   -2.7874   -6.0219 N.am      1 UNK         0.0000 
     14 C14        -7.2066   -2.3988   -6.6978 C.3       1 UNK         0.0000 
     15 H15        -6.5544   -2.0872   -5.8853 H         1 UNK         0.0000 
     16 C16        -7.4366   -1.1195   -7.5874 C.2       1 UNK         0.0000 
     17 O17        -7.1473   -0.9516   -8.7639 O.2       1 UNK         0.0000 
     18 N18        -8.1300   -0.1757   -6.9181 N.am      1 UNK         0.0000 
     19 C19        -6.4386   -3.5431   -7.4047 C.3       1 UNK         0.0000 
     20 C20        -4.8996   -3.4911   -7.2678 C.3       1 UNK         0.0000 
     21 C21        -4.1312   -2.4184   -8.0931 C.3       1 UNK         0.0000 
     22 N22        -2.9854   -1.8014   -7.3741 N.am      1 UNK         0.0000 
     23 O23        -3.0196   -0.4583   -7.3857 O.co2     1 UNK         0.0000 
     24 C24        -2.0018   -2.5019   -6.7447 C.2       1 UNK         0.0000 
     25 O25        -1.2113   -1.8933   -6.0084 O.co2     1 UNK         0.0000 
     26 C26        -1.8045   -3.9047   -7.0146 C.2       1 UNK         0.0000 
     27 C27        -0.6821   -4.4124   -7.5792 C.2       1 UNK         0.0000 
     28 C28        -0.5272   -5.9041   -7.7990 C.3       1 UNK         0.0000 
     29 C29         0.5223   -3.5809   -8.0126 C.3       1 UNK         0.0000 
     30 C30         0.7804   -3.5090   -9.5345 C.3       1 UNK         0.0000 
     31 O31         1.7114   -2.4573   -9.7897 O.3       1 UNK         0.0000 
     32 C32         3.0213   -2.6310   -9.4609 C.2       1 UNK         0.0000 
     33 O33         3.5958   -3.7251   -9.4658 O.2       1 UNK         0.0000 
     34 C34         3.6226   -1.3689   -8.8439 C.3       1 UNK         0.0000 
     35 H35         4.6483   -1.6172   -8.5491 H         1 UNK         0.0000 
     36 N36         3.6023   -0.2687   -9.8432 N.am      1 UNK         0.0000 
     37 C37         4.7212    0.3062  -10.3038 C.2       1 UNK         0.0000 
     38 O38         5.8373   -0.0477   -9.9546 O.2       1 UNK         0.0000 
     39 C39         4.5903    1.4573  -11.2996 C.3       1 UNK         0.0000 
     40 C40         2.8739   -1.0358   -7.5204 C.3       1 UNK         0.0000 
     41 C41         3.1035    0.3444   -6.8910 C.3       1 UNK         0.0000 
     42 C42         1.9750    1.3833   -7.1261 C.3       1 UNK         0.0000 
     43 N43         0.7588    1.0652   -6.3749 N.am      1 UNK         0.0000 
     44 O44        -0.1914    0.5430   -7.1757 O.co2     1 UNK         0.0000 
     45 C45         0.6414    1.0551   -5.0062 C.2       1 UNK         0.0000 
     46 O46        -0.3413    0.4371   -4.5744 O.co2     1 UNK         0.0000 
     47 C47         1.4161    1.8027   -4.0098 C.2       1 UNK         0.0000 
     48 C48         2.6506    2.3604   -3.8446 C.2       1 UNK         0.0000 
     49 C49         3.8679    2.4224   -4.7761 C.3       1 UNK         0.0000 
     50 C50         2.9701    3.0883   -2.5250 C.3       1 UNK         0.0000 
     51 C51         1.8160    3.4187   -1.5480 C.3       1 UNK         0.0000 
     52 O52         0.8497    4.2310   -2.2058 O.3       1 UNK         0.0000 
     53 H53        -5.1706    3.1974   -5.3265 H         1 UNK         0.0000 
     54 H54        -3.6295    4.0254   -5.3548 H         1 UNK         0.0000 
     55 H55        -4.2855    3.4900   -3.8103 H         1 UNK         0.0000 
     56 H56        -5.3283    1.3069   -2.9853 H         1 UNK         0.0000 
     57 H57        -5.1260   -0.3876   -3.2637 H         1 UNK         0.0000 
     58 H58        -5.8349    0.0575   -5.7206 H         1 UNK         0.0000 
     59 H59        -6.5412    1.5273   -5.1257 H         1 UNK         0.0000 
     60 H60        -7.9966    0.2814   -3.5294 H         1 UNK         0.0000 
     61 H61        -7.2256   -1.1905   -3.9582 H         1 UNK         0.0000 
     62 H62        -8.8603   -3.7172   -6.0581 H         1 UNK         0.0000 
     63 H63        -8.3223    0.6678   -7.4329 H         1 UNK         0.0000 
     64 H64        -6.7441   -4.4666   -6.9091 H         1 UNK         0.0000 
     65 H65        -6.7566   -3.6430   -8.4437 H         1 UNK         0.0000 
     66 H66        -4.5294   -4.4679   -7.5724 H         1 UNK         0.0000 
     67 H67        -4.6471   -3.3995   -6.2022 H         1 UNK         0.0000 
     68 H68        -4.8398   -1.6443   -8.3827 H         1 UNK         0.0000 
     69 H69        -3.7702   -2.8133   -9.0476 H         1 UNK         0.0000 
     70 H70        -2.6143   -4.5397   -6.7047 H         1 UNK         0.0000 
     71 H71        -1.4046   -6.4394   -7.4357 H         1 UNK         0.0000 
     72 H72         0.3436   -6.2705   -7.2512 H         1 UNK         0.0000 
     73 H73        -0.4056   -6.1133   -8.8611 H         1 UNK         0.0000 
     74 H74         1.4110   -3.9266   -7.4790 H         1 UNK         0.0000 
     75 H75         0.3837   -2.5530   -7.6950 H         1 UNK         0.0000 
     76 H76        -0.1469   -3.2426  -10.0406 H         1 UNK         0.0000 
     77 H77         1.1522   -4.4561   -9.9371 H         1 UNK         0.0000 
     78 H78         2.6983    0.1083  -10.0814 H         1 UNK         0.0000 
     79 H79         5.1222    2.3263  -10.9128 H         1 UNK         0.0000 
     80 H80         5.0647    1.1680  -12.2372 H         1 UNK         0.0000 
     81 H81         3.5579    1.7349  -11.4969 H         1 UNK         0.0000 
     82 H82         3.1277   -1.8047   -6.7838 H         1 UNK         0.0000 
     83 H83         1.8004   -1.1152   -7.6603 H         1 UNK         0.0000 
     84 H84         4.0567    0.7617   -7.2014 H         1 UNK         0.0000 
     85 H85         3.1579    0.1284   -5.8272 H         1 UNK         0.0000 
     86 H86         1.7682    1.3781   -8.1989 H         1 UNK         0.0000 
     87 H87         2.2448    2.4244   -6.9763 H         1 UNK         0.0000 
     88 H88         0.7608    1.8880   -3.1534 H         1 UNK         0.0000 
     89 H89         3.6855    2.9093   -5.7230 H         1 UNK         0.0000 
     90 H90         4.3668    1.4685   -4.9004 H         1 UNK         0.0000 
     91 H91         4.6501    3.0330   -4.3400 H         1 UNK         0.0000 
     92 H92         3.4337    4.0344   -2.7920 H         1 UNK         0.0000 
     93 H93         3.7264    2.5007   -2.0081 H         1 UNK         0.0000 
     94 H94         2.2075    3.9615   -0.6888 H         1 UNK         0.0000 
     95 H95         1.3512    2.5127   -1.1401 H         1 UNK         0.0000 
     96 H96         0.4026    4.7937   -1.5675 H         1 UNK         0.0000 
     97 Fe97       -1.7169    0.0358   -5.9202 Fe        1 UNK         0.0000 
@<TRIPOS>BOND
     1    1    2 1    
     2    1   53 1    
     3    1   54 1    
     4    1   55 1    
     5    2    3 2    
     6    2    4 am   BACKBONE|DICT|INTERRES
     7    3   97 nc   
     8    4    5 1    
     9    4    6 1    
    10    5   97 nc   
    11    6    7 1    
    12    6   56 1    
    13    6   57 1    
    14    7    8 1    
    15    7   58 1    
    16    7   59 1    
    17    8   60 1    
    18    8   61 1    
    19    8    9 1    
    20    9   11 1    
    21    9   18 1    
    22    9   10 1    
    23   11   12 2    
    24   11   13 am   BACKBONE|DICT|INTERRES
    25   13   14 1    
    26   13   62 1    
    27   14   16 1    
    28   14   19 1    
    29   14   15 1    
    30   16   17 2    
    31   16   18 am   BACKBONE|DICT|INTERRES
    32   18   63 1    
    33   19   20 1    
    34   19   64 1    
    35   19   65 1    
    36   20   21 1    
    37   20   66 1    
    38   20   67 1    
    39   21   22 1    
    40   21   68 1    
    41   21   69 1    
    42   22   23 1    
    43   22   24 am   BACKBONE|DICT|INTERRES
    44   23   97 nc   
    45   24   25 2    
    46   24   26 1    
    47   25   97 nc   
    48   26   27 2    
    49   26   70 1    
    50   27   28 1    
    51   27   29 1    
    52   28   71 1    
    53   28   72 1    
    54   28   73 1    
    55   29   30 1    
    56   29   74 1    
    57   29   75 1    
    58   30   31 1    
    59   30   76 1    
    60   30   77 1    
    61   31   32 1    
    62   32   33 2    
    63   32   34 1    
    64   34   35 1    
    65   34   36 1    
    66   34   40 1    
    67   36   37 am   BACKBONE|DICT|INTERRES
    68   36   78 1    
    69   37   38 2    
    70   37   39 1    
    71   39   79 1    
    72   39   80 1    
    73   39   81 1    
    74   40   41 1    
    75   40   82 1    
    76   40   83 1    
    77   41   42 1    
    78   41   84 1    
    79   41   85 1    
    80   42   43 1    
    81   42   86 1    
    82   42   87 1    
    83   43   44 1    
    84   43   45 am   BACKBONE|DICT|INTERRES
    85   44   97 nc   
    86   45   46 2    
    87   45   47 1    
    88   46   97 nc   
    89   47   48 2    
    90   47   88 1    
    91   48   49 1    
    92   48   50 1    
    93   49   89 1    
    94   49   90 1    
    95   49   91 1    
    96   50   51 1    
    97   50   92 1    
    98   50   93 1    
    99   51   52 1    
   100   51   94 1    
   101   51   95 1    
   102   52   96 1    
@<TRIPOS>SUBSTRUCTURE
     1 UNK         1 GROUP             0       ****    0 ROOT    
@<TRIPOS>MOLECULE
178_c1
78   85    1
SMALL
USER_CHARGES


@<TRIPOS>ATOM
      1 C1          3.8611    0.0821    1.7403 C.3       1 UNK         0.0000 
      2 C2          2.8069    0.0764    2.8729 C.3       1 UNK         0.0000 
      3 C3          3.4171   -0.3681    4.2165 C.3       1 UNK         0.0000 
      4 N4          3.9623   -1.7364    4.1355 N.3       1 UNK         0.0000 
      5 N5          4.7215   -1.9184    2.9453 N.am      1 UNK         0.0000 
      6 C6          5.1280   -0.7659    2.0700 C.3       1 UNK         0.0000 
      7 H7          5.8082   -0.1522    2.6757 H         1 UNK         0.0000 
      8 C8          4.9117   -3.1941    2.4935 C.2       1 UNK         0.0000 
      9 O9          6.0067   -3.7654    2.6905 O.co2     1 UNK         0.0000 
     10 C10         4.3588   -3.1418    1.0178 C.3       1 UNK         0.0000 
     11 H11         3.3865   -2.6426    1.1229 H         1 UNK         0.0000 
     12 N12         5.1796   -2.1851    0.1762 N.am      1 UNK         0.0000 
     13 C13         5.9483   -1.2698    0.8473 C.2       1 UNK         0.0000 
     14 O14         7.1314   -1.6157    1.0346 O.co2     1 UNK         0.0000 
     15 C15         4.9462   -1.9245   -1.2497 C.3       1 UNK         0.0000 
     16 C16         3.9341   -4.5571    0.4774 C.3       1 UNK         0.0000 
     17 C17         4.8104   -5.4144   -0.4890 C.3       1 UNK         0.0000 
     18 C18         5.9838   -6.2653    0.0691 C.3       1 UNK         0.0000 
     19 N19         7.1849   -5.5300    0.4869 N.am      1 UNK         0.0000 
     20 O20         7.2279   -4.2520    0.1173 O.co2     1 UNK         0.0000 
     21 C21         8.0434   -6.0350    1.4026 C.2       1 UNK         0.0000 
     22 O22         8.5582   -5.2295    2.1932 O.co2     1 UNK         0.0000 
     23 C23         8.5617   -7.4780    1.2765 C.3       1 UNK         0.0000 
     24 H24         7.9935   -8.0122    0.5130 H         1 UNK         0.0000 
     25 C25         8.4237   -8.2853    2.5954 C.3       1 UNK         0.0000 
     26 O26         7.0572   -8.3694    2.9643 O.3       1 UNK         0.0000 
     27 N27         9.9178   -7.3230    0.7330 N.am      1 UNK         0.0000 
     28 C28        11.0978   -7.8043    1.1500 C.2       1 UNK         0.0000 
     29 O29        11.2207   -8.5700    2.0921 O.2       1 UNK         0.0000 
     30 C30        12.3236   -7.3057    0.3851 C.3       1 UNK         0.0000 
     31 N31        12.5122   -5.8861    0.7003 N.am      1 UNK         0.0000 
     32 C32        13.6895   -5.4066    1.1399 C.2       1 UNK         0.0000 
     33 O33        14.6788   -6.1236    1.2474 O.2       1 UNK         0.0000 
     34 C34        13.8539   -3.9295    1.5341 C.3       1 UNK         0.0000 
     35 C35        13.2144   -2.7934    0.7139 C.3       1 UNK         0.0000 
     36 N36        11.7790   -2.8214    0.4755 N.am      1 UNK         0.0000 
     37 C37        10.7408   -2.6905    1.3280 C.2       1 UNK         0.0000 
     38 O38         9.6464   -3.0903    0.9090 O.co2     1 UNK         0.0000 
     39 C39        10.8213   -2.1076    2.7455 C.ar      1 UNK         0.0000 
     40 C40        12.0094   -1.5122    3.2283 C.ar      1 UNK         0.0000 
     41 C41        12.1296   -1.0312    4.5300 C.ar      1 UNK         0.0000 
     42 C42        11.0552   -1.1081    5.3988 C.ar      1 UNK         0.0000 
     43 C43         9.8436   -1.6251    4.9510 C.ar      1 UNK         0.0000 
     44 C44         9.7092   -2.1126    3.6460 C.ar      1 UNK         0.0000 
     45 O45         8.5331   -2.5253    3.3644 O.co2     1 UNK         0.0000 
     46 H46         4.1833    1.1114    1.5602 H         1 UNK         0.0000 
     47 H47         3.3616   -0.2514    0.8260 H         1 UNK         0.0000 
     48 H48         1.9748   -0.5851    2.6258 H         1 UNK         0.0000 
     49 H49         2.3635    1.0712    2.9678 H         1 UNK         0.0000 
     50 H50         2.6804   -0.2812    5.0211 H         1 UNK         0.0000 
     51 H51         4.2300    0.3186    4.4739 H         1 UNK         0.0000 
     52 H52         3.2057   -2.4179    4.1741 H         1 UNK         0.0000 
     53 H53         4.7660   -2.8346   -1.8269 H         1 UNK         0.0000 
     54 H54         5.8140   -1.4291   -1.7039 H         1 UNK         0.0000 
     55 H55         4.0698   -1.2840   -1.3809 H         1 UNK         0.0000 
     56 H56         3.0230   -4.3680   -0.1051 H         1 UNK         0.0000 
     57 H57         3.5815   -5.1817    1.3096 H         1 UNK         0.0000 
     58 H58         5.1739   -4.8106   -1.3133 H         1 UNK         0.0000 
     59 H59         4.1229   -6.1270   -0.9538 H         1 UNK         0.0000 
     60 H60         6.2815   -6.9615   -0.7164 H         1 UNK         0.0000 
     61 H61         5.6086   -6.8825    0.8938 H         1 UNK         0.0000 
     62 H62         8.9937   -7.8391    3.4162 H         1 UNK         0.0000 
     63 H63         8.8006   -9.3027    2.4699 H         1 UNK         0.0000 
     64 H64         6.6817   -9.1804    2.5867 H         1 UNK         0.0000 
     65 H65         9.9418   -6.7466   -0.0919 H         1 UNK         0.0000 
     66 H66        12.1725   -7.4283   -0.6875 H         1 UNK         0.0000 
     67 H67        13.1953   -7.9185    0.6323 H         1 UNK         0.0000 
     68 H68        11.7056   -5.2874    0.6585 H         1 UNK         0.0000 
     69 H69        13.4733   -3.8195    2.5465 H         1 UNK         0.0000 
     70 H70        14.8933   -3.6797    1.7560 H         1 UNK         0.0000 
     71 H71        13.5605   -3.0601   -0.2822 H         1 UNK         0.0000 
     72 H72        13.7336   -1.8327    0.7521 H         1 UNK         0.0000 
     73 H73        11.5193   -3.0093   -0.4811 H         1 UNK         0.0000 
     74 H74        12.9000   -1.3875    2.6415 H         1 UNK         0.0000 
     75 H75        13.0660   -0.6103    4.8774 H         1 UNK         0.0000 
     76 H76        11.1562   -0.7582    6.4185 H         1 UNK         0.0000 
     77 H77         9.0031   -1.6486    5.6397 H         1 UNK         0.0000 
     78 Fe78        7.8475   -3.4000    1.7769 Fe        1 UNK         0.0000 
@<TRIPOS>BOND
     1    1    2 1    
     2    1    6 1    
     3    1   46 1    
     4    1   47 1    
     5    2    3 1    
     6    2   48 1    
     7    2   49 1    
     8    3    4 1    
     9    3   50 1    
    10    3   51 1    
    11    4    5 1    
    12    4   52 1    
    13    5    6 1    
    14    5    8 am   BACKBONE|DICT|INTERRES
    15    6    7 1    
    16    6   13 1    
    17    8    9 2    
    18    8   10 1    
    19    9   78 nc   
    20   10   11 1    
    21   10   12 1    
    22   10   16 1    
    23   12   13 am   BACKBONE|DICT|INTERRES
    24   12   15 1    
    25   13   14 2    
    26   14   78 nc   
    27   15   53 1    
    28   15   54 1    
    29   15   55 1    
    30   16   17 1    
    31   16   56 1    
    32   16   57 1    
    33   17   18 1    
    34   17   58 1    
    35   17   59 1    
    36   18   19 1    
    37   18   60 1    
    38   18   61 1    
    39   19   20 1    
    40   19   21 am   BACKBONE|DICT|INTERRES
    41   20   78 nc   
    42   21   22 2    
    43   21   23 1    
    44   22   78 nc   
    45   23   25 1    
    46   23   27 1    
    47   23   24 1    
    48   25   26 1    
    49   25   62 1    
    50   25   63 1    
    51   26   64 1    
    52   27   28 am   BACKBONE|DICT|INTERRES
    53   27   65 1    
    54   28   29 2    
    55   28   30 1    
    56   30   31 1    
    57   30   66 1    
    58   30   67 1    
    59   31   32 am   BACKBONE|DICT|INTERRES
    60   31   68 1    
    61   32   33 2    
    62   32   34 1    
    63   34   35 1    
    64   34   69 1    
    65   34   70 1    
    66   35   36 1    
    67   35   71 1    
    68   35   72 1    
    69   36   37 am   BACKBONE|DICT|INTERRES
    70   36   73 1    
    71   37   38 2    
    72   37   39 1    
    73   38   78 nc   
    74   39   40 ar   
    75   39   44 ar   
    76   40   41 ar   
    77   40   74 1    
    78   41   42 ar   
    79   41   75 1    
    80   42   43 ar   
    81   42   76 1    
    82   43   44 ar   
    83   43   77 1    
    84   44   45 1    
    85   45   78 nc   
@<TRIPOS>SUBSTRUCTURE
     1 UNK         1 GROUP             0       ****    0 ROOT    
@<TRIPOS>MOLECULE
181_B_c1
74   82    1
SMALL
USER_CHARGES


@<TRIPOS>ATOM
      1 O1          4.7248  -11.5262   -2.0886 O.co2     1 UNK         0.0000 
      2 C2          4.4755  -11.0233   -3.2418 C.2       1 UNK         0.0000 
      3 O3          4.5785  -11.6000   -4.3383 O.co2     1 UNK         0.0000 
      4 C4          4.0541   -9.4963   -3.2301 C.3       1 UNK         0.0000 
      5 C5          2.6131   -9.2608   -3.7643 C.3       1 UNK         0.0000 
      6 N6          4.1107   -8.9952   -1.8515 N.pl3     1 UNK         0.0000 
      7 C7          4.8471   -7.9460   -1.7418 C.2       1 UNK         0.0000 
      8 S8          5.0658   -7.0837   -3.2871 S.3       1 UNK         0.0000 
      9 C9          5.1046   -8.7202   -4.0410 C.3       1 UNK         0.0000 
     10 C10         5.6285   -7.5210   -0.4338 C.3       1 UNK         0.0000 
     11 C11         7.1374   -7.4390   -0.8599 C.3       1 UNK         0.0000 
     12 C12         5.1405   -6.1128    0.0390 C.3       1 UNK         0.0000 
     13 C13         5.5482   -8.5981    0.7638 C.3       1 UNK         0.0000 
     14 H14         6.3720   -8.2833    1.4069 H         1 UNK         0.0000 
     15 O15         5.7430   -9.9351    0.3405 O.co2     1 UNK         0.0000 
     16 C16         4.3267   -8.5627    1.7442 C.3       1 UNK         0.0000 
     17 H17         4.0554   -7.5266    1.9753 H         1 UNK         0.0000 
     18 N18         3.1364   -9.2814    1.1737 N.3       1 UNK         0.0000 
     19 C19         2.0962   -8.3699    0.6279 C.3       1 UNK         0.0000 
     20 C20         4.7446   -9.2260    3.0968 C.3       1 UNK         0.0000 
     21 S21         3.1794   -9.5217    3.8590 S.3       1 UNK         0.0000 
     22 C22         2.5883  -10.1268    2.2725 C.3       1 UNK         0.0000 
     23 H23         1.5116   -9.9379    2.3391 H         1 UNK         0.0000 
     24 C24         2.7454  -11.6743    2.0708 C.3       1 UNK         0.0000 
     25 H25         1.6735  -11.9232    1.9269 H         1 UNK         0.0000 
     26 N26         3.5032  -12.0289    0.8860 N.pl3     1 UNK         0.0000 
     27 C27         3.1485  -13.2039    0.6195 C.2       1 UNK         0.0000 
     28 S28         3.2120  -14.2101    2.1399 S.3       1 UNK         0.0000 
     29 C29         3.2592  -12.6694    3.1195 C.3       1 UNK         0.0000 
     30 C30         2.4146  -13.4593   -0.6827 C.ar      1 UNK         0.0000 
     31 C31         2.1297  -14.7597   -1.1866 C.ar      1 UNK         0.0000 
     32 C32         2.4832  -16.0296   -0.3991 C.3       1 UNK         0.0000 
     33 C33         1.8305  -17.3464   -0.8597 C.3       1 UNK         0.0000 
     34 C34         1.9801  -18.4540    0.1979 C.3       1 UNK         0.0000 
     35 C35         1.1454  -19.6930   -0.1549 C.3       1 UNK         0.0000 
     36 C36         1.2175  -20.7598    0.9440 C.3       1 UNK         0.0000 
     37 C37         1.4638  -14.9014   -2.4153 C.ar      1 UNK         0.0000 
     38 C38         1.0257  -13.8091   -3.1337 C.ar      1 UNK         0.0000 
     39 C39         1.2505  -12.5338   -2.6459 C.ar      1 UNK         0.0000 
     40 C40         1.9211  -12.3322   -1.4442 C.ar      1 UNK         0.0000 
     41 O41         2.0691  -11.0935   -1.1287 O.co2     1 UNK         0.0000 
     42 H42         2.4916   -9.6602   -4.7730 H         1 UNK         0.0000 
     43 H43         2.3939   -8.1961   -3.7905 H         1 UNK         0.0000 
     44 H44         1.8397   -9.6975   -3.1387 H         1 UNK         0.0000 
     45 H45         6.1196   -9.1030   -3.8824 H         1 UNK         0.0000 
     46 H46         4.8946   -8.7242   -5.1102 H         1 UNK         0.0000 
     47 H47         7.3020   -6.7000   -1.6409 H         1 UNK         0.0000 
     48 H48         7.5279   -8.3834   -1.2561 H         1 UNK         0.0000 
     49 H49         7.8095   -7.1387   -0.0543 H         1 UNK         0.0000 
     50 H50         5.3175   -5.3659   -0.7322 H         1 UNK         0.0000 
     51 H51         5.6839   -5.7502    0.9149 H         1 UNK         0.0000 
     52 H52         4.0765   -6.0645    0.2693 H         1 UNK         0.0000 
     53 H53         2.4691   -7.7323   -0.1798 H         1 UNK         0.0000 
     54 H54         1.6606   -7.6879    1.3698 H         1 UNK         0.0000 
     55 H55         1.2570   -8.9274    0.1960 H         1 UNK         0.0000 
     56 H56         5.4036   -8.6290    3.7274 H         1 UNK         0.0000 
     57 H57         5.1981  -10.2121    2.9858 H         1 UNK         0.0000 
     58 H58         4.2915  -12.4825    3.4106 H         1 UNK         0.0000 
     59 H59         2.6327  -12.7246    4.0087 H         1 UNK         0.0000 
     60 H60         3.5669  -16.1290   -0.2887 H         1 UNK         0.0000 
     61 H61         2.0466  -15.8674    0.5776 H         1 UNK         0.0000 
     62 H62         2.2500  -17.6671   -1.8190 H         1 UNK         0.0000 
     63 H63         0.7621  -17.1648   -1.0217 H         1 UNK         0.0000 
     64 H64         3.0362  -18.7168    0.3102 H         1 UNK         0.0000 
     65 H65         1.6608  -18.0702    1.1725 H         1 UNK         0.0000 
     66 H66         1.4842  -20.1072   -1.1074 H         1 UNK         0.0000 
     67 H67         0.1036  -19.3994   -0.3082 H         1 UNK         0.0000 
     68 H68         0.6036  -21.6219    0.6874 H         1 UNK         0.0000 
     69 H69         0.8581  -20.3661    1.8971 H         1 UNK         0.0000 
     70 H70         2.2412  -21.1085    1.0923 H         1 UNK         0.0000 
     71 H71         1.2285  -15.8757   -2.8223 H         1 UNK         0.0000 
     72 H72         0.4904  -13.9392   -4.0615 H         1 UNK         0.0000 
     73 H73         0.9007  -11.6992   -3.2297 H         1 UNK         0.0000 
     74 Fe74        3.8958  -10.5277   -0.4630 Fe        1 UNK         0.0000 
@<TRIPOS>BOND
     1    1    2 1    
     2    1   74 nc   
     3    2    3 2    
     4    2    4 1    
     5    4    6 1    
     6    4    9 1    
     7    4    5 1    
     8    5   42 1    
     9    5   43 1    
    10    5   44 1    
    11    6    7 2    
    12    6   74 nc   
    13    7    8 1    
    14    7   10 1    
    15    8    9 1    
    16    9   45 1    
    17    9   46 1    
    18   10   11 1    
    19   10   12 1    
    20   10   13 1    
    21   11   47 1    
    22   11   48 1    
    23   11   49 1    
    24   12   50 1    
    25   12   51 1    
    26   12   52 1    
    27   13   14 1    
    28   13   15 1    
    29   13   16 1    
    30   15   74 nc   
    31   16   18 1    
    32   16   20 1    
    33   16   17 1    
    34   18   19 1    
    35   18   22 1    
    36   18   74 nc   
    37   19   53 1    
    38   19   54 1    
    39   19   55 1    
    40   20   21 1    
    41   20   56 1    
    42   20   57 1    
    43   21   22 1    
    44   22   23 1    
    45   22   24 1    
    46   24   26 1    
    47   24   29 1    
    48   24   25 1    
    49   26   27 2    
    50   26   74 nc   
    51   27   28 1    
    52   27   30 1    
    53   28   29 1    
    54   29   58 1    
    55   29   59 1    
    56   30   31 ar   
    57   30   40 ar   
    58   31   32 1    
    59   31   37 ar   
    60   32   33 1    
    61   32   60 1    
    62   32   61 1    
    63   33   34 1    
    64   33   62 1    
    65   33   63 1    
    66   34   35 1    
    67   34   64 1    
    68   34   65 1    
    69   35   36 1    
    70   35   66 1    
    71   35   67 1    
    72   36   68 1    
    73   36   69 1    
    74   36   70 1    
    75   37   38 ar   
    76   37   71 1    
    77   38   39 ar   
    78   38   72 1    
    79   39   40 ar   
    80   39   73 1    
    81   40   41 1    
    82   41   74 nc   
@<TRIPOS>SUBSTRUCTURE
     1 UNK         1 GROUP             0       ****    0 ROOT    
@<TRIPOS>MOLECULE
181_c1
74   82    1
SMALL
USER_CHARGES


@<TRIPOS>ATOM
      1 O1         -0.1612    4.8728  -12.9239 O.co2     1 UNK         0.0000 
      2 C2         -0.3186    4.9988  -14.1880 C.2       1 UNK         0.0000 
      3 O3         -0.0349    6.0380  -14.8150 O.co2     1 UNK         0.0000 
      4 C4         -0.6620    3.6856  -14.9825 C.3       1 UNK         0.0000 
      5 C5         -2.1523    3.6996  -15.4205 C.3       1 UNK         0.0000 
      6 N6         -0.3723    2.5310  -14.1270 N.pl3     1 UNK         0.0000 
      7 C7          0.2399    1.5939  -14.7504 C.2       1 UNK         0.0000 
      8 S8          0.3189    1.7724  -16.5303 S.3       1 UNK         0.0000 
      9 C9          0.2455    3.5537  -16.2257 C.3       1 UNK         0.0000 
     10 C10         0.8931    0.3990  -13.8810 C.3       1 UNK         0.0000 
     11 C11        -0.2487   -0.6498  -13.6965 C.3       1 UNK         0.0000 
     12 C12         1.9592   -0.3630  -14.7220 C.3       1 UNK         0.0000 
     13 C13         1.4703    0.8809  -12.4164 C.3       1 UNK         0.0000 
     14 H14         1.7541    1.6052  -13.1238 H         1 UNK         0.0000 
     15 O15         0.3863    1.1075  -11.5432 O.co2     1 UNK         0.0000 
     16 C16         2.6768    1.8624  -11.9704 C.3       1 UNK         0.0000 
     17 H17         3.4977    1.9572  -12.7184 H         1 UNK         0.0000 
     18 N18         2.0796    3.2364  -11.6489 N.3       1 UNK         0.0000 
     19 C19         2.7023    4.3011  -12.4450 C.3       1 UNK         0.0000 
     20 C20         3.5131    1.3568  -10.7825 C.3       1 UNK         0.0000 
     21 S21         2.7753    2.0590   -9.3204 S.3       1 UNK         0.0000 
     22 C22         2.2374    3.5383  -10.1994 C.3       1 UNK         0.0000 
     23 H23         3.0858    4.2122  -10.0390 H         1 UNK         0.0000 
     24 C24         0.9932    4.1160   -9.4707 C.3       1 UNK         0.0000 
     25 H25         0.8926    3.6136   -8.4963 H         1 UNK         0.0000 
     26 N26        -0.2305    3.8942  -10.1952 N.pl3     1 UNK         0.0000 
     27 C27        -1.1957    4.6670   -9.8316 C.2       1 UNK         0.0000 
     28 S28        -0.6135    5.9611   -8.6946 S.3       1 UNK         0.0000 
     29 C29         1.0840    5.5905   -9.1270 C.3       1 UNK         0.0000 
     30 C30        -2.6149    4.5721  -10.3886 C.ar      1 UNK         0.0000 
     31 C31        -3.7063    5.3804   -9.9274 C.ar      1 UNK         0.0000 
     32 C32        -3.5956    6.3766   -8.7632 C.3       1 UNK         0.0000 
     33 C33        -4.8486    7.1527   -8.3158 C.3       1 UNK         0.0000 
     34 C34        -4.5226    8.0790   -7.1383 C.3       1 UNK         0.0000 
     35 C35        -5.7443    8.8857   -6.6924 C.3       1 UNK         0.0000 
     36 C36        -5.4210    9.8048   -5.5096 C.3       1 UNK         0.0000 
     37 C37        -4.9640    5.2890  -10.5567 C.ar      1 UNK         0.0000 
     38 C38        -5.1880    4.4337  -11.6145 C.ar      1 UNK         0.0000 
     39 C39        -4.1704    3.6064  -12.0503 C.ar      1 UNK         0.0000 
     40 C40        -2.9127    3.6565  -11.4570 C.ar      1 UNK         0.0000 
     41 O41        -2.0974    2.8041  -11.9473 O.co2     1 UNK         0.0000 
     42 H42        -2.4393    2.7893  -15.9546 H         1 UNK         0.0000 
     43 H43        -2.3196    4.5359  -16.1068 H         1 UNK         0.0000 
     44 H44        -2.8446    3.8149  -14.5811 H         1 UNK         0.0000 
     45 H45        -0.1599    4.0826  -17.0925 H         1 UNK         0.0000 
     46 H46         1.2718    3.8983  -16.0191 H         1 UNK         0.0000 
     47 H47        -0.5945   -1.0393  -14.6558 H         1 UNK         0.0000 
     48 H48        -1.1294   -0.2292  -13.2025 H         1 UNK         0.0000 
     49 H49         0.0617   -1.5138  -13.0954 H         1 UNK         0.0000 
     50 H50         1.5174   -0.7953  -15.6235 H         1 UNK         0.0000 
     51 H51         2.3971   -1.2077  -14.1645 H         1 UNK         0.0000 
     52 H52         2.7754    0.2918  -15.0416 H         1 UNK         0.0000 
     53 H53         2.5240    4.1563  -13.5089 H         1 UNK         0.0000 
     54 H54         3.7806    4.3141  -12.2741 H         1 UNK         0.0000 
     55 H55         2.3069    5.2804  -12.1656 H         1 UNK         0.0000 
     56 H56         4.5323    1.7632  -10.8329 H         1 UNK         0.0000 
     57 H57         3.5969    0.2661  -10.7021 H         1 UNK         0.0000 
     58 H58         1.7438    5.7776   -8.2740 H         1 UNK         0.0000 
     59 H59         1.3884    6.2153   -9.9764 H         1 UNK         0.0000 
     60 H60        -3.2128    5.8408   -7.8918 H         1 UNK         0.0000 
     61 H61        -2.8817    7.1406   -9.0667 H         1 UNK         0.0000 
     62 H62        -5.6484    6.4659   -8.0302 H         1 UNK         0.0000 
     63 H63        -5.2231    7.7561   -9.1460 H         1 UNK         0.0000 
     64 H64        -4.1452    7.4859   -6.3021 H         1 UNK         0.0000 
     65 H65        -3.7177    8.7604   -7.4236 H         1 UNK         0.0000 
     66 H66        -6.5496    8.2040   -6.4103 H         1 UNK         0.0000 
     67 H67        -6.1141    9.4861   -7.5264 H         1 UNK         0.0000 
     68 H68        -5.0775    9.2264   -4.6475 H         1 UNK         0.0000 
     69 H69        -6.3101   10.3647   -5.2095 H         1 UNK         0.0000 
     70 H70        -4.6397   10.5236   -5.7720 H         1 UNK         0.0000 
     71 H71        -5.7996    5.8942  -10.2386 H         1 UNK         0.0000 
     72 H72        -6.1611    4.3945  -12.0843 H         1 UNK         0.0000 
     73 H73        -4.3739    2.9058  -12.8516 H         1 UNK         0.0000 
     74 Fe74       -0.1478    3.0145  -12.0356 Fe        1 UNK         0.0000 
@<TRIPOS>BOND
     1    1    2 1    
     2    1   74 nc   
     3    2    3 2    
     4    2    4 1    
     5    4    6 1    
     6    4    9 1    
     7    4    5 1    
     8    5   42 1    
     9    5   43 1    
    10    5   44 1    
    11    6    7 2    
    12    6   74 nc   
    13    7    8 1    
    14    7   10 1    
    15    8    9 1    
    16    9   45 1    
    17    9   46 1    
    18   10   11 1    
    19   10   12 1    
    20   10   13 1    
    21   11   47 1    
    22   11   48 1    
    23   11   49 1    
    24   12   50 1    
    25   12   51 1    
    26   12   52 1    
    27   13   14 1    
    28   13   15 1    
    29   13   16 1    
    30   15   74 nc   
    31   16   18 1    
    32   16   20 1    
    33   16   17 1    
    34   18   19 1    
    35   18   22 1    
    36   18   74 nc   
    37   19   53 1    
    38   19   54 1    
    39   19   55 1    
    40   20   21 1    
    41   20   56 1    
    42   20   57 1    
    43   21   22 1    
    44   22   23 1    
    45   22   24 1    
    46   24   26 1    
    47   24   29 1    
    48   24   25 1    
    49   26   27 2    
    50   26   74 nc   
    51   27   28 1    
    52   27   30 1    
    53   28   29 1    
    54   29   58 1    
    55   29   59 1    
    56   30   31 ar   
    57   30   40 ar   
    58   31   32 1    
    59   31   37 ar   
    60   32   33 1    
    61   32   60 1    
    62   32   61 1    
    63   33   34 1    
    64   33   62 1    
    65   33   63 1    
    66   34   35 1    
    67   34   64 1    
    68   34   65 1    
    69   35   36 1    
    70   35   66 1    
    71   35   67 1    
    72   36   68 1    
    73   36   69 1    
    74   36   70 1    
    75   37   38 ar   
    76   37   71 1    
    77   38   39 ar   
    78   38   72 1    
    79   39   40 ar   
    80   39   73 1    
    81   40   41 1    
    82   41   74 nc   
@<TRIPOS>SUBSTRUCTURE
     1 UNK         1 GROUP             0       ****    0 ROOT    
@<TRIPOS>MOLECULE
181_P1_c1
71   79    1
SMALL
USER_CHARGES


@<TRIPOS>ATOM
      1 O1         -1.6814    4.3932    0.3586 O.co2     1 UNK         0.0000 
      2 C2         -2.4737    5.0800    1.0994 C.2       1 UNK         0.0000 
      3 O3         -2.2813    6.2466    1.4816 O.co2     1 UNK         0.0000 
      4 C4         -3.8491    4.3848    1.4204 C.3       1 UNK         0.0000 
      5 C5         -4.9527    5.1175    0.6031 C.3       1 UNK         0.0000 
      6 N6         -3.7564    2.9901    1.0244 N.pl3     1 UNK         0.0000 
      7 C7         -4.5014    2.1824    1.6625 C.2       1 UNK         0.0000 
      8 S8         -5.3661    2.9608    3.0359 S.3       1 UNK         0.0000 
      9 C9         -4.2055    4.3656    2.9162 C.3       1 UNK         0.0000 
     10 C10        -4.5745    0.6541    1.2655 C.3       1 UNK         0.0000 
     11 C11        -4.2995   -0.1410    2.5848 C.3       1 UNK         0.0000 
     12 C12        -6.0186    0.3218    0.7966 C.3       1 UNK         0.0000 
     13 C13        -3.5111    0.2056    0.1063 C.3       1 UNK         0.0000 
     14 H14        -3.7259   -0.8495   -0.1090 H         1 UNK         0.0000 
     15 O15        -2.2189    0.3319    0.6291 O.co2     1 UNK         0.0000 
     16 C16        -3.5820    0.9918   -1.3049 C.3       1 UNK         0.0000 
     17 H17        -4.5532    1.4915   -1.3436 H         1 UNK         0.0000 
     18 N18        -2.4878    2.0308   -1.4755 N.3       1 UNK         0.0000 
     19 C19        -2.9409    3.2512   -2.1624 C.3       1 UNK         0.0000 
     20 C20        -3.5253    0.0983   -2.5583 C.3       1 UNK         0.0000 
     21 S21        -1.7750   -0.1614   -2.8738 S.3       1 UNK         0.0000 
     22 C22        -1.3243    1.4705   -2.2315 C.3       1 UNK         0.0000 
     23 H23        -1.2256    1.9986   -3.1839 H         1 UNK         0.0000 
     24 C24         0.0945    1.5975   -1.5552 C.3       1 UNK         0.0000 
     25 H25         0.5749    2.4687   -2.0183 H         1 UNK         0.0000 
     26 N26         0.0125    1.9194   -0.1488 N.pl3     1 UNK         0.0000 
     27 C27         1.0455    1.6048    0.5509 C.2       1 UNK         0.0000 
     28 S28         2.2785    0.7409   -0.4504 S.3       1 UNK         0.0000 
     29 C29         1.0726    0.4364   -1.7357 C.3       1 UNK         0.0000 
     30 C30         1.1767    1.9223    2.0355 C.ar      1 UNK         0.0000 
     31 C31         2.3847    1.7405    2.7960 C.ar      1 UNK         0.0000 
     32 C32         3.6185    0.9003    2.4290 C.3       1 UNK         0.0000 
     33 C33         4.9336    1.6953    2.2204 C.3       1 UNK         0.0000 
     34 C34         5.2590    2.0941    0.7712 C.3       1 UNK         0.0000 
     35 C35         5.7143    0.9144   -0.1043 C.3       1 UNK         0.0000 
     36 C36         2.4782    2.2633    4.0948 C.ar      1 UNK         0.0000 
     37 C37         1.4210    2.8903    4.7119 C.ar      1 UNK         0.0000 
     38 C38         0.2011    2.9583    4.0589 C.ar      1 UNK         0.0000 
     39 C39         0.0584    2.4658    2.7634 C.ar      1 UNK         0.0000 
     40 O40        -1.1529    2.5179    2.3504 O.co2     1 UNK         0.0000 
     41 H41        -5.9260    4.6261    0.6563 H         1 UNK         0.0000 
     42 H42        -5.0821    6.1273    0.9976 H         1 UNK         0.0000 
     43 H43        -4.6920    5.2264   -0.4504 H         1 UNK         0.0000 
     44 H44        -3.3337    4.1529    3.5517 H         1 UNK         0.0000 
     45 H45        -4.6790    5.2965    3.2387 H         1 UNK         0.0000 
     46 H46        -5.0719    0.0486    3.3350 H         1 UNK         0.0000 
     47 H47        -3.3436    0.1410    3.0443 H         1 UNK         0.0000 
     48 H48        -4.2759   -1.2247    2.4316 H         1 UNK         0.0000 
     49 H49        -6.7408    0.5312    1.5896 H         1 UNK         0.0000 
     50 H50        -6.1405   -0.7463    0.5778 H         1 UNK         0.0000 
     51 H51        -6.3478    0.8910   -0.0763 H         1 UNK         0.0000 
     52 H52        -3.7653    3.7369   -1.6479 H         1 UNK         0.0000 
     53 H53        -3.2662    3.0243   -3.1823 H         1 UNK         0.0000 
     54 H54        -2.1176    3.9699   -2.2323 H         1 UNK         0.0000 
     55 H55        -3.9275    0.6349   -3.4253 H         1 UNK         0.0000 
     56 H56        -4.0478   -0.8586   -2.4770 H         1 UNK         0.0000 
     57 H57         0.6296   -0.5455   -1.5325 H         1 UNK         0.0000 
     58 H58         1.5572    0.4268   -2.7183 H         1 UNK         0.0000 
     59 H59         3.4580    0.1260    1.6929 H         1 UNK         0.0000 
     60 H60         3.7880    0.2781    3.3115 H         1 UNK         0.0000 
     61 H61         5.7693    1.1060    2.6025 H         1 UNK         0.0000 
     62 H62         4.9226    2.5933    2.8403 H         1 UNK         0.0000 
     63 H63         4.4023    2.6050    0.3261 H         1 UNK         0.0000 
     64 H64         6.0707    2.8275    0.7867 H         1 UNK         0.0000 
     65 H65         4.9732    0.1150   -0.1482 H         1 UNK         0.0000 
     66 H66         6.6387    0.4709    0.2751 H         1 UNK         0.0000 
     67 H67         5.9021    1.2458   -1.1281 H         1 UNK         0.0000 
     68 H68         3.3856    2.1450    4.6730 H         1 UNK         0.0000 
     69 H69         1.5142    3.2690    5.7208 H         1 UNK         0.0000 
     70 H70        -0.6459    3.3835    4.5831 H         1 UNK         0.0000 
     71 Fe71       -1.8391    2.3401    0.5261 Fe        1 UNK         0.0000 
@<TRIPOS>BOND
     1    1    2 1    
     2    1   71 nc   
     3    2    3 2    
     4    2    4 1    
     5    4    6 1    
     6    4    9 1    
     7    4    5 1    
     8    5   41 1    
     9    5   42 1    
    10    5   43 1    
    11    6    7 2    
    12    6   71 nc   
    13    7    8 1    
    14    7   10 1    
    15    8    9 1    
    16    9   44 1    
    17    9   45 1    
    18   10   11 1    
    19   10   12 1    
    20   10   13 1    
    21   11   46 1    
    22   11   47 1    
    23   11   48 1    
    24   12   49 1    
    25   12   50 1    
    26   12   51 1    
    27   13   15 1    
    28   13   14 1    
    29   13   16 1    
    30   15   71 nc   
    31   16   18 1    
    32   16   20 1    
    33   16   17 1    
    34   18   19 1    
    35   18   22 1    
    36   18   71 nc   
    37   19   52 1    
    38   19   53 1    
    39   19   54 1    
    40   20   21 1    
    41   20   55 1    
    42   20   56 1    
    43   21   22 1    
    44   22   23 1    
    45   22   24 1    
    46   24   26 1    
    47   24   29 1    
    48   24   25 1    
    49   26   27 2    
    50   26   71 nc   
    51   27   28 1    
    52   27   30 1    
    53   28   29 1    
    54   29   57 1    
    55   29   58 1    
    56   30   31 ar   
    57   30   39 ar   
    58   31   32 1    
    59   31   36 ar   
    60   32   33 1    
    61   32   59 1    
    62   32   60 1    
    63   33   34 1    
    64   33   61 1    
    65   33   62 1    
    66   34   35 1    
    67   34   63 1    
    68   34   64 1    
    69   35   65 1    
    70   35   66 1    
    71   35   67 1    
    72   36   37 ar   
    73   36   68 1    
    74   37   38 ar   
    75   37   69 1    
    76   38   39 ar   
    77   38   70 1    
    78   39   40 1    
    79   40   71 nc   
@<TRIPOS>SUBSTRUCTURE
     1 UNK         1 GROUP             0       ****    0 ROOT    
@<TRIPOS>MOLECULE
183_c1
38   43    1
SMALL
USER_CHARGES


@<TRIPOS>ATOM
      1 O1         -2.9950    1.3524   12.2368 O.co2     1 UNK         0.0000 
      2 C2         -2.2758    2.5156   12.2434 C.2       1 UNK         0.0000 
      3 O3         -2.8824    3.5220   12.5785 O.co2     1 UNK         0.0000 
      4 C4         -0.7278    2.6187   11.9520 C.3       1 UNK         0.0000 
      5 H5         -0.1922    2.0407   12.7383 H         1 UNK         0.0000 
      6 C6         -0.3355    4.1173   11.9007 C.3       1 UNK         0.0000 
      7 C7         -0.2158    3.9032   10.3839 C.3       1 UNK         0.0000 
      8 N8         -0.0883    2.4631   10.5873 N.4       1 UNK         0.0000 
      9 H9          0.9329    2.3209   10.8048 H         1 UNK         0.0000 
     10 C10        -0.3103    1.4864    9.4726 C.3       1 UNK         0.0000 
     11 C11        -1.7300    1.4728    8.8140 C.3       1 UNK         0.0000 
     12 H12        -1.7921    2.1889    7.9675 H         1 UNK         0.0000 
     13 O13        -2.5233    2.0294    9.7662 O.co2     1 UNK         0.0000 
     14 C14        -2.3581    0.0743    8.3886 C.3       1 UNK         0.0000 
     15 H15        -2.0776   -0.2283    7.3560 H         1 UNK         0.0000 
     16 C16        -1.8182   -0.8903    9.3821 C.2       1 UNK         0.0000 
     17 O17        -2.1451   -0.5736   10.6327 O.co2     1 UNK         0.0000 
     18 O18        -1.1150   -1.8488    9.1044 O.co2     1 UNK         0.0000 
     19 N19        -3.8319    0.1340    8.6389 N.3       1 UNK         0.0000 
     20 C20        -4.5267   -1.1899    8.5320 C.3       1 UNK         0.0000 
     21 C21        -5.9346   -1.1931    9.2325 C.3       1 UNK         0.0000 
     22 C22        -5.9365   -0.3414   10.5553 C.3       1 UNK         0.0000 
     23 H23        -5.8393    0.3022    9.6886 H         1 UNK         0.0000 
     24 O24        -4.7270   -0.6792   11.2162 O.co2     1 UNK         0.0000 
     25 C25        -6.0979    1.1427   10.8469 C.2       1 UNK         0.0000 
     26 O26        -4.9928    1.9157   10.6719 O.co2     1 UNK         0.0000 
     27 O27        -7.1356    1.6114   11.2905 O.co2     1 UNK         0.0000 
     28 H28         0.6990    4.2105   12.3026 H         1 UNK         0.0000 
     29 H29        -0.9832    4.9456   12.2574 H         1 UNK         0.0000 
     30 H30         0.6450    4.4042    9.8881 H         1 UNK         0.0000 
     31 H31        -1.1843    4.1327    9.8853 H         1 UNK         0.0000 
     32 H32        -0.0276    0.5216    9.9274 H         1 UNK         0.0000 
     33 H33         0.4410    1.6206    8.6636 H         1 UNK         0.0000 
     34 H34        -3.9543   -1.9589    9.0873 H         1 UNK         0.0000 
     35 H35        -4.5932   -1.5466    7.4819 H         1 UNK         0.0000 
     36 H36        -6.7657   -0.9408    8.5035 H         1 UNK         0.0000 
     37 H37        -6.1518   -2.2540    9.4871 H         1 UNK         0.0000 
     38 Fe38       -3.5537    0.6963   10.5617 Fe        1 UNK         0.0000 
@<TRIPOS>BOND
     1    1    2 1    
     2    1   38 nc   
     3    2    3 2    
     4    2    4 1    
     5    4    5 1    
     6    4    6 1    
     7    4    8 1    
     8    6    7 1    
     9    6   28 1    
    10    6   29 1    
    11    7    8 1    
    12    7   30 1    
    13    7   31 1    
    14    8   10 1    
    15    8    9 1    
    16   10   32 1    
    17   10   33 1    
    18   10   11 1    
    19   11   13 1    
    20   11   14 1    
    21   11   12 1    
    22   13   38 nc   
    23   14   15 1    
    24   14   16 1    
    25   14   19 1    
    26   16   17 1    
    27   16   18 2    
    28   17   38 nc   
    29   19   20 1    
    30   19   38 nc   
    31   20   21 1    
    32   20   34 1    
    33   20   35 1    
    34   21   36 1    
    35   21   37 1    
    36   21   22 1    
    37   22   24 1    
    38   22   25 1    
    39   22   23 1    
    40   24   38 nc   
    41   25   26 1    
    42   25   27 2    
    43   26   38 nc   
@<TRIPOS>SUBSTRUCTURE
     1 UNK         1 GROUP             0       ****    0 ROOT    
@<TRIPOS>MOLECULE
184_art_c1
178   189    1
SMALL
USER_CHARGES


@<TRIPOS>ATOM
      1 C1          2.7846    6.2159    2.7890 C.3       1 UNK         0.0000 
      2 C2          2.2724    6.4669    4.2474 C.3       1 UNK         0.0000 
      3 H3          2.3138    5.4836    4.7231 H         1 UNK         0.0000 
      4 C4          3.2365    7.2834    5.1442 C.3       1 UNK         0.0000 
      5 H5          3.3269    8.2953    4.7381 H         1 UNK         0.0000 
      6 C6          2.7752    7.3828    6.6172 C.3       1 UNK         0.0000 
      7 C7          4.6171    6.5880    5.1073 C.3       1 UNK         0.0000 
      8 C8          5.2064    6.5558    3.6922 C.3       1 UNK         0.0000 
      9 C9          4.3184    5.8550    2.6215 C.3       1 UNK         0.0000 
     10 H10         4.6527    6.3281    1.6887 H         1 UNK         0.0000 
     11 C11         4.6341    4.3503    2.2893 C.3       1 UNK         0.0000 
     12 H12         4.8524    4.3168    1.2150 H         1 UNK         0.0000 
     13 C13         5.8909    3.7323    2.9417 C.3       1 UNK         0.0000 
     14 C14         3.4092    3.4506    2.3976 C.3       1 UNK         0.0000 
     15 H15         3.5838    2.4747    1.9296 H         1 UNK         0.0000 
     16 O16         2.3800    4.0389    1.6208 O.3       1 UNK         0.0000 
     17 C17         1.7687    5.1485    2.2249 C.3       1 UNK         0.0000 
     18 H18         1.2025    4.6092    2.9903 H         1 UNK         0.0000 
     19 O19         0.6857    5.6554    1.4698 O.3       1 UNK         0.0000 
     20 C20         0.4610    7.0633    1.6228 C.3       1 UNK         0.0000 
     21 O21         1.6144    7.7609    1.2382 O.3       1 UNK         0.0000 
     22 O22         2.7352    7.4980    2.1247 O.3       1 UNK         0.0000 
     23 C23        -0.5719    7.4506    0.5488 C.3       1 UNK         0.0000 
     24 C24         0.0636    7.5141    3.0775 C.3       1 UNK         0.0000 
     25 C25         0.7477    6.8545    4.3164 C.3       1 UNK         0.0000 
     26 O26         3.1098    3.3162    3.7703 O.3       1 UNK         0.0000 
     27 C27         2.6582    2.0460    4.2365 C.3       1 UNK         0.0000 
     28 C28         3.8199    1.1168    4.6930 C.3       1 UNK         0.0000 
     29 C29         4.6625    1.5247    5.9565 C.3       1 UNK         0.0000 
     30 C30         3.9423    1.4786    7.3268 C.2       1 UNK         0.0000 
     31 O31         2.7217    1.4363    7.3626 O.2       1 UNK         0.0000 
     32 N32         4.5977    1.4887    8.5030 N.am      1 UNK         0.0000 
     33 C33         6.0285    1.3844    8.8531 C.3       1 UNK         0.0000 
     34 H34         6.5821    1.2070    7.9315 H         1 UNK         0.0000 
     35 C35         6.2738    0.1481    9.7803 C.2       1 UNK         0.0000 
     36 O36         5.3228   -0.4452   10.2802 O.2       1 UNK         0.0000 
     37 N37         7.5458   -0.2429   10.0039 N.am      1 UNK         0.0000 
     38 C38         7.9694   -1.5384   10.5919 C.3       1 UNK         0.0000 
     39 H39         7.1009   -2.0120   11.0634 H         1 UNK         0.0000 
     40 C40         8.9012   -1.2492   11.8297 C.2       1 UNK         0.0000 
     41 O41         8.5948   -0.3242   12.6016 O.co2     1 UNK         0.0000 
     42 N42         9.9632   -2.0468   12.2124 N.am      1 UNK         0.0000 
     43 O43        10.6769   -1.6691   13.3171 O.co2     1 UNK         0.0000 
     44 C44         8.3286   -2.4498    9.4073 C.3       1 UNK         0.0000 
     45 C45         8.7608   -3.8561    9.7619 C.3       1 UNK         0.0000 
     46 C46        10.1737   -3.8550   10.3196 C.3       1 UNK         0.0000 
     47 C47        10.2799   -3.4260   11.7885 C.3       1 UNK         0.0000 
     48 C48         6.5418    2.7079    9.5085 C.3       1 UNK         0.0000 
     49 N49         8.0017    2.7302    9.7257 N.am      1 UNK         0.0000 
     50 C50         8.7543    2.9874   10.8158 C.2       1 UNK         0.0000 
     51 O51         9.9481    2.7392   10.7458 O.2       1 UNK         0.0000 
     52 C52         8.1628    3.5633   12.1327 C.3       1 UNK         0.0000 
     53 H53         7.7397    4.5313   11.8469 H         1 UNK         0.0000 
     54 N54         7.0773    2.7192   12.6543 N.am      1 UNK         0.0000 
     55 C55         6.3856    3.0939   13.7491 C.2       1 UNK         0.0000 
     56 O56         6.1256    4.2716   13.9731 O.2       1 UNK         0.0000 
     57 C57         6.1115    2.0431   14.8591 C.3       1 UNK         0.0000 
     58 H58         5.3900    2.4916   15.5508 H         1 UNK         0.0000 
     59 N59         5.5539    0.8295   14.3356 N.2       1 UNK         0.0000 
     60 C60         6.4153   -0.0950   14.5249 C.2       1 UNK         0.0000 
     61 O61         7.6464    0.3442   15.0217 O.3       1 UNK         0.0000 
     62 C62         7.3767    1.6097   15.6268 C.3       1 UNK         0.0000 
     63 C63         6.2317   -1.5223   14.1911 C.ar      1 UNK         0.0000 
     64 C64         7.2245   -2.5020   14.3925 C.ar      1 UNK         0.0000 
     65 O65         8.3547   -2.2136   14.8908 O.co2     1 UNK         0.0000 
     66 C66         6.9957   -3.8253   14.0164 C.ar      1 UNK         0.0000 
     67 C67         5.7678   -4.1986   13.4615 C.ar      1 UNK         0.0000 
     68 C68         4.7727   -3.2476   13.2750 C.ar      1 UNK         0.0000 
     69 C69         5.0046   -1.9241   13.6368 C.ar      1 UNK         0.0000 
     70 C70         9.1436    3.8175   13.3440 C.3       1 UNK         0.0000 
     71 C71        10.6713    4.0513   13.3583 C.3       1 UNK         0.0000 
     72 C72        11.2269    3.9653   14.8260 C.3       1 UNK         0.0000 
     73 C73        11.8584    2.6232   15.3465 C.3       1 UNK         0.0000 
     74 N74        11.0022    1.4196   15.4081 N.am      1 UNK         0.0000 
     75 O75        10.4643    1.1182   14.2208 O.co2     1 UNK         0.0000 
     76 C76        10.8788    0.6013   16.5052 C.2       1 UNK         0.0000 
     77 O77        10.2104   -0.4409   16.2902 O.co2     1 UNK         0.0000 
     78 C78        11.4290    0.9884   17.9553 C.3       1 UNK         0.0000 
     79 C79        12.8351    0.4215   18.5086 C.3       1 UNK         0.0000 
     80 C80        13.7861    1.1354   19.6169 C.3       1 UNK         0.0000 
     81 C81        13.2332    1.8499   20.9178 C.3       1 UNK         0.0000 
     82 C82        13.8077    1.5039   22.3703 C.3       1 UNK         0.0000 
     83 C83        15.2299    1.9731   22.8779 C.3       1 UNK         0.0000 
     84 C84        15.5140    1.7814   24.4304 C.3       1 UNK         0.0000 
     85 C85        16.9656    2.0789   24.9665 C.3       1 UNK         0.0000 
     86 C86        17.3899    1.5455   26.3974 C.3       1 UNK         0.0000 
     87 C87        17.4775    2.5409   27.6102 C.3       1 UNK         0.0000 
     88 C88        18.3377    2.0448   28.8288 C.3       1 UNK         0.0000 
     89 C89        18.4886    3.0415   30.0205 C.3       1 UNK         0.0000 
     90 C90        19.5232    2.6390   31.1176 C.3       1 UNK         0.0000 
     91 C91        19.7234    3.7123   32.2224 C.3       1 UNK         0.0000 
     92 C92        20.9433    3.5148   33.1553 C.3       1 UNK         0.0000 
     93 C93        20.7997    2.3995   34.2000 C.3       1 UNK         0.0000 
     94 H94         1.8628    7.9681    6.7411 H         1 UNK         0.0000 
     95 H95         3.5304    7.8751    7.2327 H         1 UNK         0.0000 
     96 H96         2.5967    6.3932    7.0464 H         1 UNK         0.0000 
     97 H97         4.5521    5.5745    5.5214 H         1 UNK         0.0000 
     98 H98         5.3074    7.1216    5.7687 H         1 UNK         0.0000 
     99 H99         6.2422    6.2196    3.6769 H         1 UNK         0.0000 
    100 H100        5.2810    7.6038    3.3941 H         1 UNK         0.0000 
    101 H101        5.8230    3.7503    4.0321 H         1 UNK         0.0000 
    102 H102        6.7903    4.2752    2.6403 H         1 UNK         0.0000 
    103 H103        6.0347    2.6903    2.6323 H         1 UNK         0.0000 
    104 H104       -0.2519    7.1338   -0.4490 H         1 UNK         0.0000 
    105 H105       -0.7305    8.5314    0.5118 H         1 UNK         0.0000 
    106 H106       -1.5354    6.9825    0.7498 H         1 UNK         0.0000 
    107 H107       -1.0117    7.3589    3.1932 H         1 UNK         0.0000 
    108 H108        0.1986    8.5989    3.1428 H         1 UNK         0.0000 
    109 H109        0.1920    5.9387    4.5338 H         1 UNK         0.0000 
    110 H110        0.5312    7.4817    5.1787 H         1 UNK         0.0000 
    111 H111        2.0552    1.5554    3.4658 H         1 UNK         0.0000 
    112 H112        1.9652    2.2243    5.0591 H         1 UNK         0.0000 
    113 H113        4.4974    0.9845    3.8451 H         1 UNK         0.0000 
    114 H114        3.3934    0.1255    4.8698 H         1 UNK         0.0000 
    115 H115        5.0832    2.5199    5.8193 H         1 UNK         0.0000 
    116 H116        5.5022    0.8301    6.0066 H         1 UNK         0.0000 
    117 H117        3.9925    1.3713    9.3097 H         1 UNK         0.0000 
    118 H118        8.2848    0.3012    9.5772 H         1 UNK         0.0000 
    119 H119        9.0848   -1.9772    8.7733 H         1 UNK         0.0000 
    120 H120        7.4318   -2.5325    8.7799 H         1 UNK         0.0000 
    121 H121        8.7436   -4.4528    8.8464 H         1 UNK         0.0000 
    122 H122        8.0530   -4.3307   10.4474 H         1 UNK         0.0000 
    123 H123       10.8457   -3.2681    9.6893 H         1 UNK         0.0000 
    124 H124       10.5408   -4.8834   10.2549 H         1 UNK         0.0000 
    125 H125       11.2972   -3.6802   12.1067 H         1 UNK         0.0000 
    126 H126        9.6502   -4.0890   12.3829 H         1 UNK         0.0000 
    127 H127        5.9760    2.9192   10.4150 H         1 UNK         0.0000 
    128 H128        6.3070    3.5436    8.8447 H         1 UNK         0.0000 
    129 H129        8.5636    2.5052    8.9176 H         1 UNK         0.0000 
    130 H130        7.1323    1.7381   12.4205 H         1 UNK         0.0000 
    131 H131        8.2077    2.3117   15.6428 H         1 UNK         0.0000 
    132 H132        7.1306    1.4530   16.6831 H         1 UNK         0.0000 
    133 H133        7.7587   -4.5788   14.1705 H         1 UNK         0.0000 
    134 H134        5.5875   -5.2268   13.1935 H         1 UNK         0.0000 
    135 H135        3.8114   -3.5337   12.8697 H         1 UNK         0.0000 
    136 H136        4.2079   -1.2126   13.4937 H         1 UNK         0.0000 
    137 H137        8.7023    4.6151   13.9470 H         1 UNK         0.0000 
    138 H138        9.0419    2.9281   13.9333 H         1 UNK         0.0000 
    139 H139       10.8769    5.0346   12.9300 H         1 UNK         0.0000 
    140 H140       11.2228    3.3346   12.7550 H         1 UNK         0.0000 
    141 H141       10.4715    4.3009   15.5340 H         1 UNK         0.0000 
    142 H142       12.0064    4.7211   14.9119 H         1 UNK         0.0000 
    143 H143       12.3108    2.8363   16.3175 H         1 UNK         0.0000 
    144 H144       12.7040    2.3775   14.6884 H         1 UNK         0.0000 
    145 H145       10.6321    0.6247   18.6246 H         1 UNK         0.0000 
    146 H146       11.3736    2.0682   18.0819 H         1 UNK         0.0000 
    147 H147       13.4873    0.3188   17.6307 H         1 UNK         0.0000 
    148 H148       12.7004   -0.6314   18.8236 H         1 UNK         0.0000 
    149 H149       14.4310    1.8591   19.1163 H         1 UNK         0.0000 
    150 H150       14.5138    0.3960   19.9820 H         1 UNK         0.0000 
    151 H151       12.1630    1.6563   20.9477 H         1 UNK         0.0000 
    152 H152       13.3306    2.9335   20.7951 H         1 UNK         0.0000 
    153 H153       13.7175    0.4310   22.5462 H         1 UNK         0.0000 
    154 H154       13.1049    1.9530   23.0835 H         1 UNK         0.0000 
    155 H155       15.3650    3.0263   22.6303 H         1 UNK         0.0000 
    156 H156       15.9879    1.4373   22.3031 H         1 UNK         0.0000 
    157 H157       14.8217    2.4032   24.9983 H         1 UNK         0.0000 
    158 H158       15.2679    0.7530   24.6983 H         1 UNK         0.0000 
    159 H159       17.1893    3.1461   24.8984 H         1 UNK         0.0000 
    160 H160       17.6539    1.6122   24.2564 H         1 UNK         0.0000 
    161 H161       16.7787    0.6834   26.6778 H         1 UNK         0.0000 
    162 H162       18.3987    1.1323   26.2892 H         1 UNK         0.0000 
    163 H163       17.9047    3.4838   27.2638 H         1 UNK         0.0000 
    164 H164       16.4692    2.7776   27.9545 H         1 UNK         0.0000 
    165 H165       19.3387    1.7980   28.4703 H         1 UNK         0.0000 
    166 H166       17.9268    1.1090   29.2131 H         1 UNK         0.0000 
    167 H167       17.5148    3.1884   30.4920 H         1 UNK         0.0000 
    168 H168       18.7764    4.0176   29.6263 H         1 UNK         0.0000 
    169 H169       19.2294    1.6965   31.5844 H         1 UNK         0.0000 
    170 H170       20.4882    2.4497   30.6431 H         1 UNK         0.0000 
    171 H171       18.8178    3.8032   32.8262 H         1 UNK         0.0000 
    172 H172       19.8527    4.6842   31.7402 H         1 UNK         0.0000 
    173 H173       21.8476    3.3457   32.5667 H         1 UNK         0.0000 
    174 H174       21.1225    4.4452   33.7013 H         1 UNK         0.0000 
    175 H175       19.9398    2.5718   34.8492 H         1 UNK         0.0000 
    176 H176       21.6840    2.3632   34.8422 H         1 UNK         0.0000 
    177 H177       20.6908    1.4204   33.7353 H         1 UNK         0.0000 
    178 Fe178       9.3897   -0.5619   14.4045 Fe        1 UNK         0.0000 
@<TRIPOS>BOND
     1    1    2 1    
     2    1   22 1    
     3    1    9 1    
     4    1   17 1    
     5    2    3 1    
     6    2    4 1    
     7    2   25 1    
     8    4    5 1    
     9    4    6 1    
    10    4    7 1    
    11    6   94 1    
    12    6   95 1    
    13    6   96 1    
    14    7    8 1    
    15    7   97 1    
    16    7   98 1    
    17    8    9 1    
    18    8   99 1    
    19    8  100 1    
    20    9   10 1    
    21    9   11 1    
    22   11   13 1    
    23   11   12 1    
    24   11   14 1    
    25   13  101 1    
    26   13  102 1    
    27   13  103 1    
    28   14   15 1    
    29   14   16 1    
    30   14   26 1    
    31   16   17 1    
    32   17   18 1    
    33   17   19 1    
    34   19   20 1    
    35   20   21 1    
    36   20   23 1    
    37   20   24 1    
    38   21   22 1    
    39   23  104 1    
    40   23  105 1    
    41   23  106 1    
    42   24   25 1    
    43   24  107 1    
    44   24  108 1    
    45   25  109 1    
    46   25  110 1    
    47   26   27 1    
    48   27   28 1    
    49   27  111 1    
    50   27  112 1    
    51   28   29 1    
    52   28  113 1    
    53   28  114 1    
    54   29   30 1    
    55   29  115 1    
    56   29  116 1    
    57   30   31 2    
    58   30   32 am   BACKBONE|DICT|INTERRES
    59   32  117 1    
    60   32   33 1    
    61   33   35 1    
    62   33   48 1    
    63   33   34 1    
    64   35   36 2    
    65   35   37 am   BACKBONE|DICT|INTERRES
    66   37   38 1    
    67   37  118 1    
    68   38   39 1    
    69   38   40 1    
    70   38   44 1    
    71   40   41 2    
    72   40   42 am   BACKBONE|DICT|INTERRES
    73   41  178 nc   
    74   42   43 1    
    75   42   47 1    
    76   43  178 nc   
    77   44   45 1    
    78   44  119 1    
    79   44  120 1    
    80   45   46 1    
    81   45  121 1    
    82   45  122 1    
    83   46   47 1    
    84   46  123 1    
    85   46  124 1    
    86   47  125 1    
    87   47  126 1    
    88   48   49 1    
    89   48  127 1    
    90   48  128 1    
    91   49   50 am   BACKBONE|DICT|INTERRES
    92   49  129 1    
    93   50   51 2    
    94   50   52 1    
    95   52   53 1    
    96   52   54 1    
    97   52   70 1    
    98   54   55 am   BACKBONE|DICT|INTERRES
    99   54  130 1    
   100   55   56 2    
   101   55   57 1    
   102   57   58 1    
   103   57   59 1    
   104   57   62 1    
   105   59   60 2    
   106   60   61 1    
   107   60   63 1    
   108   61   62 1    
   109   61  178 nc   
   110   62  131 1    
   111   62  132 1    
   112   63   64 ar   
   113   63   69 ar   
   114   64   65 1    
   115   64   66 ar   
   116   65  178 nc   
   117   66   67 ar   
   118   66  133 1    
   119   67   68 ar   
   120   67  134 1    
   121   68   69 ar   
   122   68  135 1    
   123   69  136 1    
   124   70   71 1    
   125   70  137 1    
   126   70  138 1    
   127   71   72 1    
   128   71  139 1    
   129   71  140 1    
   130   72   73 1    
   131   72  141 1    
   132   72  142 1    
   133   73   74 1    
   134   73  143 1    
   135   73  144 1    
   136   74   75 1    
   137   74   76 am   BACKBONE|DICT|INTERRES
   138   75  178 nc   
   139   76   77 2    
   140   76   78 1    
   141   77  178 nc   
   142   78   79 1    
   143   78  145 1    
   144   78  146 1    
   145   79   80 1    
   146   79  147 1    
   147   79  148 1    
   148   80   81 1    
   149   80  149 1    
   150   80  150 1    
   151   81   82 1    
   152   81  151 1    
   153   81  152 1    
   154   82   83 1    
   155   82  153 1    
   156   82  154 1    
   157   83   84 1    
   158   83  155 1    
   159   83  156 1    
   160   84   85 1    
   161   84  157 1    
   162   84  158 1    
   163   85   86 1    
   164   85  159 1    
   165   85  160 1    
   166   86   87 1    
   167   86  161 1    
   168   86  162 1    
   169   87   88 1    
   170   87  163 1    
   171   87  164 1    
   172   88   89 1    
   173   88  165 1    
   174   88  166 1    
   175   89   90 1    
   176   89  167 1    
   177   89  168 1    
   178   90   91 1    
   179   90  169 1    
   180   90  170 1    
   181   91   92 1    
   182   91  171 1    
   183   91  172 1    
   184   92   93 1    
   185   92  173 1    
   186   92  174 1    
   187   93  175 1    
   188   93  176 1    
   189   93  177 1    
@<TRIPOS>SUBSTRUCTURE
     1 UNK         1 GROUP             0       ****    0 ROOT    
@<TRIPOS>MOLECULE
184_J_c1
129   136    1
SMALL
USER_CHARGES


@<TRIPOS>ATOM
      1 O1         -5.3129    5.9223    8.6029 O.co2     1 UNK         0.0000 
      2 N2         -5.0243    6.3812    7.3724 N.am      1 UNK         0.0000 
      3 C3         -6.1361    7.0961    6.7321 C.3       1 UNK         0.0000 
      4 C4         -5.7970    8.4619    6.1291 C.3       1 UNK         0.0000 
      5 C5         -5.0337    8.3813    4.8039 C.3       1 UNK         0.0000 
      6 C6         -3.5796    7.9049    4.9483 C.3       1 UNK         0.0000 
      7 C7         -3.3269    6.4539    5.4206 C.3       1 UNK         0.0000 
      8 H8         -2.2743    6.4809    5.7034 H         1 UNK         0.0000 
      9 C9         -3.8992    5.8917    6.7494 C.2       1 UNK         0.0000 
     10 O10        -3.3739    4.8732    7.1944 O.co2     1 UNK         0.0000 
     11 N11        -3.3319    5.3683    4.3975 N.am      1 UNK         0.0000 
     12 C12        -4.4176    4.7750    3.8810 C.2       1 UNK         0.0000 
     13 O13        -5.5226    5.2762    4.0174 O.2       1 UNK         0.0000 
     14 C14        -4.2802    3.4147    3.1411 C.3       1 UNK         0.0000 
     15 H15        -4.4629    3.6720    2.0972 H         1 UNK         0.0000 
     16 C16        -2.8459    2.8004    3.1724 C.3       1 UNK         0.0000 
     17 C17        -5.4028    2.4020    3.5876 C.3       1 UNK         0.0000 
     18 H18        -5.4652    2.4125    4.6745 H         1 UNK         0.0000 
     19 C19        -6.7838    2.7649    2.9440 C.3       1 UNK         0.0000 
     20 C20        -7.9233    1.7460    3.1175 C.3       1 UNK         0.0000 
     21 O21        -5.0696    1.1062    3.0787 O.3       1 UNK         0.0000 
     22 C22        -4.9732   -0.1239    3.7155 C.2       1 UNK         0.0000 
     23 O23        -4.7865   -1.1195    3.0130 O.2       1 UNK         0.0000 
     24 C24        -5.1194   -0.2905    5.2496 C.3       1 UNK         0.0000 
     25 H25        -5.1205   -1.3792    5.3694 H         1 UNK         0.0000 
     26 N26        -3.9652    0.2778    5.9813 N.am      1 UNK         0.0000 
     27 C27        -3.2397   -0.4602    6.8374 C.2       1 UNK         0.0000 
     28 O28        -3.2137   -1.6941    6.7728 O.2       1 UNK         0.0000 
     29 C29        -2.5839    0.2841    8.0404 C.3       1 UNK         0.0000 
     30 H30        -2.1389   -0.5047    8.6510 H         1 UNK         0.0000 
     31 N31        -1.5701    1.2745    7.6836 N.2       1 UNK         0.0000 
     32 C32        -1.9863    2.3499    8.2244 C.2       1 UNK         0.0000 
     33 O33        -3.3407    2.3200    8.4711 O.co2     1 UNK         0.0000 
     34 C34        -3.6250    1.0215    8.9002 C.3       1 UNK         0.0000 
     35 H35        -4.6564    0.8151    8.6639 H         1 UNK         0.0000 
     36 C36        -3.4203    1.0470   10.4285 C.3       1 UNK         0.0000 
     37 C37        -1.2604    3.5883    8.6098 C.ar      1 UNK         0.0000 
     38 C38        -1.8042    4.5502    9.5209 C.ar      1 UNK         0.0000 
     39 O39        -2.9864    4.5258   10.0030 O.co2     1 UNK         0.0000 
     40 C40        -1.0076    5.6241    9.9097 C.ar      1 UNK         0.0000 
     41 C41         0.3139    5.7376    9.4669 C.ar      1 UNK         0.0000 
     42 C42         0.8469    4.8048    8.5968 C.ar      1 UNK         0.0000 
     43 C43         0.0583    3.7415    8.1522 C.ar      1 UNK         0.0000 
     44 C44        -6.4789    0.0839    5.9036 C.3       1 UNK         0.0000 
     45 C45        -6.7413   -0.5160    7.3316 C.3       1 UNK         0.0000 
     46 C46        -7.7818    0.2135    8.2356 C.3       1 UNK         0.0000 
     47 C47        -7.3138    1.3093    9.2638 C.3       1 UNK         0.0000 
     48 N48        -6.7411    2.6172    8.8392 N.am      1 UNK         0.0000 
     49 O49        -5.9164    3.1551    9.7697 O.co2     1 UNK         0.0000 
     50 C50        -6.7232    3.0730    7.5609 C.2       1 UNK         0.0000 
     51 O51        -5.6472    3.5205    7.1764 O.co2     1 UNK         0.0000 
     52 C52        -7.8599    3.0693    6.6510 C.2       1 UNK         0.0000 
     53 C53        -9.1844    3.0384    6.8969 C.2       1 UNK         0.0000 
     54 C54        -9.9214    3.0515    8.2131 C.3       1 UNK         0.0000 
     55 C55       -11.4148    3.3275    7.9881 C.3       1 UNK         0.0000 
     56 C56       -12.2515    3.3017    9.2720 C.3       1 UNK         0.0000 
     57 C57       -12.3538    1.9018    9.9039 C.3       1 UNK         0.0000 
     58 C58       -13.3267    1.8967   11.0853 C.3       1 UNK         0.0000 
     59 C59       -13.5204    0.4877   11.6530 C.3       1 UNK         0.0000 
     60 C60       -14.5625    0.4708   12.7736 C.3       1 UNK         0.0000 
     61 C61       -14.8039   -0.9497   13.2879 C.3       1 UNK         0.0000 
     62 C62       -15.8883   -0.9799   14.3675 C.3       1 UNK         0.0000 
     63 C63       -16.1613   -2.4089   14.8485 C.3       1 UNK         0.0000 
     64 C64       -17.2701   -2.4507   15.9061 C.3       1 UNK         0.0000 
     65 C65       -17.5583   -3.8836   16.3746 C.3       1 UNK         0.0000 
     66 C66       -18.6755   -3.9248   17.4242 C.3       1 UNK         0.0000 
     67 H67        -6.9415    7.2845    7.4507 H         1 UNK         0.0000 
     68 H68        -6.6140    6.4353    6.0042 H         1 UNK         0.0000 
     69 H69        -5.2412    9.0300    6.8754 H         1 UNK         0.0000 
     70 H70        -6.7296    9.0014    5.9625 H         1 UNK         0.0000 
     71 H71        -5.0223    9.3699    4.3555 H         1 UNK         0.0000 
     72 H72        -5.5723    7.7410    4.1059 H         1 UNK         0.0000 
     73 H73        -3.0602    8.5694    5.6429 H         1 UNK         0.0000 
     74 H74        -3.0712    8.0381    3.9960 H         1 UNK         0.0000 
     75 H75        -2.4650    4.8606    4.3022 H         1 UNK         0.0000 
     76 H76        -2.0888    3.4796    2.7770 H         1 UNK         0.0000 
     77 H77        -2.7897    1.9031    2.5527 H         1 UNK         0.0000 
     78 H78        -2.5581    2.5102    4.1848 H         1 UNK         0.0000 
     79 H79        -6.6379    2.9263    1.8737 H         1 UNK         0.0000 
     80 H80        -7.1545    3.7175    3.3150 H         1 UNK         0.0000 
     81 H81        -7.6656    0.7843    2.6771 H         1 UNK         0.0000 
     82 H82        -8.8307    2.0967    2.6263 H         1 UNK         0.0000 
     83 H83        -8.1662    1.5906    4.1654 H         1 UNK         0.0000 
     84 H84        -3.9213    1.2612    6.2024 H         1 UNK         0.0000 
     85 H85        -3.5781    0.0655   10.8577 H         1 UNK         0.0000 
     86 H86        -2.4110    1.3732   10.6771 H         1 UNK         0.0000 
     87 H87        -4.0894    1.7553   10.9104 H         1 UNK         0.0000 
     88 H88        -1.4123    6.3541   10.5897 H         1 UNK         0.0000 
     89 H89         0.9247    6.5362    9.8598 H         1 UNK         0.0000 
     90 H90         1.8777    4.8526    8.2919 H         1 UNK         0.0000 
     91 H91         0.4798    2.9912    7.4813 H         1 UNK         0.0000 
     92 H92        -7.3030   -0.2203    5.2577 H         1 UNK         0.0000 
     93 H93        -6.5022    1.1527    5.9272 H         1 UNK         0.0000 
     94 H94        -7.1197   -1.5263    7.1824 H         1 UNK         0.0000 
     95 H95        -5.8218   -0.7080    7.8819 H         1 UNK         0.0000 
     96 H96        -8.2268   -0.5603    8.8609 H         1 UNK         0.0000 
     97 H97        -8.6122    0.5671    7.6332 H         1 UNK         0.0000 
     98 H98        -8.1434    1.5477    9.9320 H         1 UNK         0.0000 
     99 H99        -6.5921    0.8116    9.9178 H         1 UNK         0.0000 
    100 H100       -7.5382    3.1226    5.6218 H         1 UNK         0.0000 
    101 H101       -9.8296    3.0253    6.0279 H         1 UNK         0.0000 
    102 H102       -9.4654    3.7795    8.8902 H         1 UNK         0.0000 
    103 H103       -9.8298    2.0706    8.6642 H         1 UNK         0.0000 
    104 H104      -11.8242    2.5922    7.2873 H         1 UNK         0.0000 
    105 H105      -11.5354    4.2968    7.5040 H         1 UNK         0.0000 
    106 H106      -13.2573    3.6625    9.0335 H         1 UNK         0.0000 
    107 H107      -11.8376    4.0088    9.9959 H         1 UNK         0.0000 
    108 H108      -11.3742    1.5539   10.2432 H         1 UNK         0.0000 
    109 H109      -12.6892    1.1802    9.1529 H         1 UNK         0.0000 
    110 H110      -14.2919    2.2943   10.7585 H         1 UNK         0.0000 
    111 H111      -12.9711    2.5721   11.8695 H         1 UNK         0.0000 
    112 H112      -12.5676    0.0990   12.0246 H         1 UNK         0.0000 
    113 H113      -13.8317   -0.1889   10.8515 H         1 UNK         0.0000 
    114 H114      -15.5023    0.8941   12.4070 H         1 UNK         0.0000 
    115 H115      -14.2367    1.1168   13.5942 H         1 UNK         0.0000 
    116 H116      -13.8727   -1.3668   13.6824 H         1 UNK         0.0000 
    117 H117      -15.0977   -1.5965   12.4559 H         1 UNK         0.0000 
    118 H118      -15.5899   -0.3523   15.2126 H         1 UNK         0.0000 
    119 H119      -16.8108   -0.5416   13.9746 H         1 UNK         0.0000 
    120 H120      -15.2425   -2.8434   15.2547 H         1 UNK         0.0000 
    121 H121      -16.4419   -3.0352   13.9956 H         1 UNK         0.0000 
    122 H122      -18.1809   -2.0032   15.4968 H         1 UNK         0.0000 
    123 H123      -16.9848   -1.8280   16.7595 H         1 UNK         0.0000 
    124 H124      -17.8336   -4.5015   15.5161 H         1 UNK         0.0000 
    125 H125      -16.6467   -4.3262   16.7840 H         1 UNK         0.0000 
    126 H126      -19.6057   -3.5162   17.0242 H         1 UNK         0.0000 
    127 H127      -18.4080   -3.3399   18.3065 H         1 UNK         0.0000 
    128 H128      -18.8698   -4.9469   17.7458 H         1 UNK         0.0000 
    129 Fe129      -4.4171    4.0745    8.6469 Fe        1 UNK         0.0000 
@<TRIPOS>BOND
     1    1    2 1    
     2    1  129 nc   
     3    2    3 1    
     4    2    9 am   BACKBONE|DICT|INTERRES
     5    3    4 1    
     6    3   67 1    
     7    3   68 1    
     8    4    5 1    
     9    4   69 1    
    10    4   70 1    
    11    5    6 1    
    12    5   71 1    
    13    5   72 1    
    14    6    7 1    
    15    6   73 1    
    16    6   74 1    
    17    7    8 1    
    18    7    9 1    
    19    7   11 1    
    20    9   10 2    
    21   10  129 nc   
    22   11   12 am   BACKBONE|DICT|INTERRES
    23   11   75 1    
    24   12   13 2    
    25   12   14 1    
    26   14   15 1    
    27   14   16 1    
    28   14   17 1    
    29   16   76 1    
    30   16   77 1    
    31   16   78 1    
    32   17   18 1    
    33   17   19 1    
    34   17   21 1    
    35   19   20 1    
    36   19   79 1    
    37   19   80 1    
    38   20   81 1    
    39   20   82 1    
    40   20   83 1    
    41   21   22 1    
    42   22   23 2    
    43   22   24 1    
    44   24   25 1    
    45   24   26 1    
    46   24   44 1    
    47   26   27 am   BACKBONE|DICT|INTERRES
    48   26   84 1    
    49   27   28 2    
    50   27   29 1    
    51   29   30 1    
    52   29   31 1    
    53   29   34 1    
    54   31   32 2    
    55   32   33 1    
    56   32   37 1    
    57   33   34 1    
    58   33  129 nc   
    59   34   36 1    
    60   34   35 1    
    61   36   85 1    
    62   36   86 1    
    63   36   87 1    
    64   37   38 ar   
    65   37   43 ar   
    66   38   39 1    
    67   38   40 ar   
    68   39  129 nc   
    69   40   41 ar   
    70   40   88 1    
    71   41   42 ar   
    72   41   89 1    
    73   42   43 ar   
    74   42   90 1    
    75   43   91 1    
    76   44   45 1    
    77   44   92 1    
    78   44   93 1    
    79   45   46 1    
    80   45   94 1    
    81   45   95 1    
    82   46   47 1    
    83   46   96 1    
    84   46   97 1    
    85   47   48 1    
    86   47   98 1    
    87   47   99 1    
    88   48   49 1    
    89   48   50 am   BACKBONE|DICT|INTERRES
    90   49  129 nc   
    91   50   51 2    
    92   50   52 1    
    93   51  129 nc   
    94   52   53 2    
    95   52  100 1    
    96   53   54 1    
    97   53  101 1    
    98   54   55 1    
    99   54  102 1    
   100   54  103 1    
   101   55   56 1    
   102   55  104 1    
   103   55  105 1    
   104   56   57 1    
   105   56  106 1    
   106   56  107 1    
   107   57   58 1    
   108   57  108 1    
   109   57  109 1    
   110   58   59 1    
   111   58  110 1    
   112   58  111 1    
   113   59   60 1    
   114   59  112 1    
   115   59  113 1    
   116   60   61 1    
   117   60  114 1    
   118   60  115 1    
   119   61   62 1    
   120   61  116 1    
   121   61  117 1    
   122   62   63 1    
   123   62  118 1    
   124   62  119 1    
   125   63   64 1    
   126   63  120 1    
   127   63  121 1    
   128   64   65 1    
   129   64  122 1    
   130   64  123 1    
   131   65   66 1    
   132   65  124 1    
   133   65  125 1    
   134   66  126 1    
   135   66  127 1    
   136   66  128 1    
@<TRIPOS>SUBSTRUCTURE
     1 UNK         1 GROUP             0       ****    0 ROOT    
@<TRIPOS>MOLECULE
184_P_c1
135   142    1
SMALL
USER_CHARGES


@<TRIPOS>ATOM
      1 O1          8.3011    6.2039   -4.8397 O.co2     1 UNK         0.0000 
      2 N2          7.0629    5.7214   -4.5373 N.am      1 UNK         0.0000 
      3 C3          6.7115    4.5066   -5.2956 C.3       1 UNK         0.0000 
      4 C4          6.0108    3.3691   -4.5454 C.3       1 UNK         0.0000 
      5 C5          4.5824    3.6994   -4.1199 C.3       1 UNK         0.0000 
      6 C6          4.5700    4.6126   -2.8982 C.3       1 UNK         0.0000 
      7 C7          4.9392    6.0966   -3.1264 C.3       1 UNK         0.0000 
      8 H8          4.0716    6.5540   -3.6159 H         1 UNK         0.0000 
      9 C9          6.1349    6.5845   -4.0070 C.2       1 UNK         0.0000 
     10 O10         6.3237    7.8040   -4.1098 O.co2     1 UNK         0.0000 
     11 N11         5.1612    6.7196   -1.8066 N.am      1 UNK         0.0000 
     12 C12         4.4392    7.6688   -1.1823 C.2       1 UNK         0.0000 
     13 O13         3.4485    8.1702   -1.7064 O.2       1 UNK         0.0000 
     14 C14         4.8826    8.1210    0.2431 C.3       1 UNK         0.0000 
     15 H15         4.0285    7.8692    0.8755 H         1 UNK         0.0000 
     16 C16         6.0936    7.3243    0.7953 C.3       1 UNK         0.0000 
     17 C17         5.0974    9.6663    0.3619 C.3       1 UNK         0.0000 
     18 H18         4.1295   10.1131    0.1189 H         1 UNK         0.0000 
     19 C19         5.4231   10.2148    1.7841 C.3       1 UNK         0.0000 
     20 C20         4.3722    9.8796    2.8589 C.3       1 UNK         0.0000 
     21 O21         5.9145   10.0959   -0.7250 O.3       1 UNK         0.0000 
     22 C22         7.0413   10.8631   -0.7517 C.2       1 UNK         0.0000 
     23 O23         7.7232   11.1457    0.2321 O.2       1 UNK         0.0000 
     24 C24         7.3582   11.3570   -2.1839 C.3       1 UNK         0.0000 
     25 H25         7.4469   12.4463   -2.1384 H         1 UNK         0.0000 
     26 N26         8.6985   10.7725   -2.5505 N.am      1 UNK         0.0000 
     27 C27         9.7966   11.4459   -3.0146 C.2       1 UNK         0.0000 
     28 O28         9.8349   12.6681   -2.9553 O.2       1 UNK         0.0000 
     29 C29        11.0449   10.6878   -3.6621 C.3       1 UNK         0.0000 
     30 H30        11.8591   11.4162   -3.7380 H         1 UNK         0.0000 
     31 N31        11.4465    9.6061   -2.8247 N.2       1 UNK         0.0000 
     32 C32        10.9171    8.5710   -3.3532 C.2       1 UNK         0.0000 
     33 O33        10.2374    8.7345   -4.5650 O.3       1 UNK         0.0000 
     34 C34        10.8538    9.9551   -5.0177 C.3       1 UNK         0.0000 
     35 C35        10.7050    7.3591   -2.6165 C.ar      1 UNK         0.0000 
     36 C36        11.7520    6.5147   -2.1913 C.ar      1 UNK         0.0000 
     37 C37        13.2098    6.7027   -2.6068 C.3       1 UNK         0.0000 
     38 C38        11.4471    5.4665   -1.3201 C.ar      1 UNK         0.0000 
     39 C39        10.1350    5.2662   -0.8921 C.ar      1 UNK         0.0000 
     40 C40         9.1094    6.1135   -1.3210 C.ar      1 UNK         0.0000 
     41 C41         9.3788    7.1745   -2.1785 C.ar      1 UNK         0.0000 
     42 O42         8.4214    7.9545   -2.5683 O.co2     1 UNK         0.0000 
     43 C43         6.1272   11.0239   -3.1638 C.3       1 UNK         0.0000 
     44 C44         5.7773   11.8462   -4.4291 C.3       1 UNK         0.0000 
     45 C45         4.9620   11.0910   -5.5656 C.3       1 UNK         0.0000 
     46 C46         5.4616    9.7607   -6.3053 C.3       1 UNK         0.0000 
     47 N47         6.9105    9.5449   -6.6078 N.am      1 UNK         0.0000 
     48 O48         7.3920    8.3028   -6.5378 O.co2     1 UNK         0.0000 
     49 C49         7.7002   10.5139   -6.2225 C.2       1 UNK         0.0000 
     50 O50         8.2289   10.2712   -5.1354 O.co2     1 UNK         0.0000 
     51 C51         7.7127   11.6877   -7.0819 C.2       1 UNK         0.0000 
     52 C52         8.3132   12.8772   -6.8978 C.2       1 UNK         0.0000 
     53 C53         9.1903   13.3426   -5.7602 C.3       1 UNK         0.0000 
     54 C54         9.8263   14.7059   -6.0410 C.3       1 UNK         0.0000 
     55 C55        10.8334   15.1850   -4.9847 C.3       1 UNK         0.0000 
     56 C56        11.4644   16.5064   -5.4353 C.3       1 UNK         0.0000 
     57 C57        12.5272   17.0560   -4.4811 C.3       1 UNK         0.0000 
     58 C58        13.1686   18.3222   -5.0673 C.3       1 UNK         0.0000 
     59 C59        14.2733   18.9209   -4.1894 C.3       1 UNK         0.0000 
     60 C60        14.9304   20.1256   -4.8780 C.3       1 UNK         0.0000 
     61 C61        16.0535   20.7578   -4.0497 C.3       1 UNK         0.0000 
     62 C62        16.7309   21.9139   -4.8050 C.3       1 UNK         0.0000 
     63 C63        17.9082   22.5494   -4.0475 C.3       1 UNK         0.0000 
     64 C64        17.4908   23.2919   -2.7659 C.3       1 UNK         0.0000 
     65 C65        18.6789   23.9876   -2.0801 C.3       1 UNK         0.0000 
     66 C66        18.3093   24.7233   -0.7797 C.3       1 UNK         0.0000 
     67 C67        17.3615   25.9139   -0.9855 C.3       1 UNK         0.0000 
     68 H68         7.6118    4.0825   -5.7532 H         1 UNK         0.0000 
     69 H69         6.0945    4.7965   -6.1498 H         1 UNK         0.0000 
     70 H70         6.6160    3.0507   -3.6933 H         1 UNK         0.0000 
     71 H71         5.9614    2.5045   -5.2123 H         1 UNK         0.0000 
     72 H72         4.0716    2.7671   -3.8625 H         1 UNK         0.0000 
     73 H73         4.0091    4.1378   -4.9435 H         1 UNK         0.0000 
     74 H74         5.1927    4.1731   -2.1130 H         1 UNK         0.0000 
     75 H75         3.5515    4.6032   -2.4982 H         1 UNK         0.0000 
     76 H76         6.0027    6.4255   -1.3329 H         1 UNK         0.0000 
     77 H77         5.9250    6.2471    0.7240 H         1 UNK         0.0000 
     78 H78         6.2734    7.5411    1.8492 H         1 UNK         0.0000 
     79 H79         7.0037    7.5719    0.2452 H         1 UNK         0.0000 
     80 H80         6.4046    9.8622    2.1044 H         1 UNK         0.0000 
     81 H81         5.5030   11.3028    1.7255 H         1 UNK         0.0000 
     82 H82         4.2904    8.8048    3.0283 H         1 UNK         0.0000 
     83 H83         3.3852   10.2578    2.5865 H         1 UNK         0.0000 
     84 H84         4.6442   10.3347    3.8131 H         1 UNK         0.0000 
     85 H85         8.8355    9.7957   -2.2676 H         1 UNK         0.0000 
     86 H86        10.3955   10.5059   -5.8294 H         1 UNK         0.0000 
     87 H87        11.8356    9.7262   -5.4466 H         1 UNK         0.0000 
     88 H88        13.3643    7.4851   -3.3522 H         1 UNK         0.0000 
     89 H89        13.5847    5.7711   -3.0336 H         1 UNK         0.0000 
     90 H90        13.8332    6.9419   -1.7409 H         1 UNK         0.0000 
     91 H91        12.2302    4.8085   -0.9730 H         1 UNK         0.0000 
     92 H92         9.9144    4.4627   -0.2033 H         1 UNK         0.0000 
     93 H93         8.1031    5.9447   -0.9792 H         1 UNK         0.0000 
     94 H94         5.1971   11.1916   -2.6170 H         1 UNK         0.0000 
     95 H95         6.0938    9.9653   -3.3717 H         1 UNK         0.0000 
     96 H96         5.1564   12.6952   -4.1211 H         1 UNK         0.0000 
     97 H97         6.6566   12.3571   -4.7969 H         1 UNK         0.0000 
     98 H98         4.8084   11.8299   -6.3537 H         1 UNK         0.0000 
     99 H99         3.9523   10.8927   -5.1997 H         1 UNK         0.0000 
    100 H100        4.9477    9.7084   -7.2705 H         1 UNK         0.0000 
    101 H101        5.0548    8.9060   -5.7662 H         1 UNK         0.0000 
    102 H102        7.1324   11.5614   -7.9850 H         1 UNK         0.0000 
    103 H103        8.1518   13.6229   -7.6680 H         1 UNK         0.0000 
    104 H104        9.9754   12.6069   -5.6111 H         1 UNK         0.0000 
    105 H105        8.5719   13.4131   -4.8665 H         1 UNK         0.0000 
    106 H106        9.0349   15.4539   -6.1449 H         1 UNK         0.0000 
    107 H107       10.3302   14.6546   -7.0095 H         1 UNK         0.0000 
    108 H108       11.6107   14.4317   -4.8344 H         1 UNK         0.0000 
    109 H109       10.3351   15.3088   -4.0200 H         1 UNK         0.0000 
    110 H110       10.6806   17.2556   -5.5629 H         1 UNK         0.0000 
    111 H111       11.9159   16.3669   -6.4197 H         1 UNK         0.0000 
    112 H112       13.3020   16.3063   -4.3075 H         1 UNK         0.0000 
    113 H113       12.0791   17.2771   -3.5099 H         1 UNK         0.0000 
    114 H114       12.3984   19.0789   -5.2399 H         1 UNK         0.0000 
    115 H115       13.5883   18.0868   -6.0493 H         1 UNK         0.0000 
    116 H116       15.0292   18.1600   -3.9801 H         1 UNK         0.0000 
    117 H117       13.8551   19.2201   -3.2252 H         1 UNK         0.0000 
    118 H118       15.3283   19.8097   -5.8452 H         1 UNK         0.0000 
    119 H119       14.1697   20.8810   -5.0898 H         1 UNK         0.0000 
    120 H120       15.6393   21.1124   -3.1039 H         1 UNK         0.0000 
    121 H121       16.7986   19.9978   -3.8005 H         1 UNK         0.0000 
    122 H122       15.9913   22.6820   -5.0462 H         1 UNK         0.0000 
    123 H123       17.0990   21.5398   -5.7639 H         1 UNK         0.0000 
    124 H124       18.4051   23.2536   -4.7187 H         1 UNK         0.0000 
    125 H125       18.6482   21.7811   -3.8118 H         1 UNK         0.0000 
    126 H126       16.7243   24.0270   -3.0191 H         1 UNK         0.0000 
    127 H127       17.0336   22.5939   -2.0623 H         1 UNK         0.0000 
    128 H128       19.1481   24.6883   -2.7741 H         1 UNK         0.0000 
    129 H129       19.4388   23.2369   -1.8486 H         1 UNK         0.0000 
    130 H130       17.8658   24.0223   -0.0692 H         1 UNK         0.0000 
    131 H131       19.2267   25.0877   -0.3127 H         1 UNK         0.0000 
    132 H132       16.3869   25.5940   -1.3555 H         1 UNK         0.0000 
    133 H133       17.7753   26.6299   -1.6977 H         1 UNK         0.0000 
    134 H134       17.1949   26.4410   -0.0444 H         1 UNK         0.0000 
    135 Fe135       8.1617    8.2133   -4.6268 Fe        1 UNK         0.0000 
@<TRIPOS>BOND
     1    1    2 1    
     2    1  135 nc   
     3    2    3 1    
     4    2    9 am   BACKBONE|DICT|INTERRES
     5    3    4 1    
     6    3   68 1    
     7    3   69 1    
     8    4    5 1    
     9    4   70 1    
    10    4   71 1    
    11    5    6 1    
    12    5   72 1    
    13    5   73 1    
    14    6    7 1    
    15    6   74 1    
    16    6   75 1    
    17    7    9 1    
    18    7   11 1    
    19    7    8 1    
    20    9   10 2    
    21   10  135 nc   
    22   11   12 am   BACKBONE|DICT|INTERRES
    23   11   76 1    
    24   12   13 2    
    25   12   14 1    
    26   14   15 1    
    27   14   16 1    
    28   14   17 1    
    29   16   77 1    
    30   16   78 1    
    31   16   79 1    
    32   17   18 1    
    33   17   19 1    
    34   17   21 1    
    35   19   20 1    
    36   19   80 1    
    37   19   81 1    
    38   20   82 1    
    39   20   83 1    
    40   20   84 1    
    41   21   22 1    
    42   22   23 2    
    43   22   24 1    
    44   24   25 1    
    45   24   26 1    
    46   24   43 1    
    47   26   27 am   BACKBONE|DICT|INTERRES
    48   26   85 1    
    49   27   28 2    
    50   27   29 1    
    51   29   30 1    
    52   29   31 1    
    53   29   34 1    
    54   31   32 2    
    55   32   33 1    
    56   32   35 1    
    57   33   34 1    
    58   33  135 nc   
    59   34   86 1    
    60   34   87 1    
    61   35   36 ar   
    62   35   41 ar   
    63   36   37 1    
    64   36   38 ar   
    65   37   88 1    
    66   37   89 1    
    67   37   90 1    
    68   38   39 ar   
    69   38   91 1    
    70   39   40 ar   
    71   39   92 1    
    72   40   41 ar   
    73   40   93 1    
    74   41   42 1    
    75   42  135 nc   
    76   43   44 1    
    77   43   94 1    
    78   43   95 1    
    79   44   45 1    
    80   44   96 1    
    81   44   97 1    
    82   45   46 1    
    83   45   98 1    
    84   45   99 1    
    85   46   47 1    
    86   46  100 1    
    87   46  101 1    
    88   47   48 1    
    89   47   49 am   BACKBONE|DICT|INTERRES
    90   48  135 nc   
    91   49   50 2    
    92   49   51 1    
    93   50  135 nc   
    94   51   52 2    
    95   51  102 1    
    96   52   53 1    
    97   52  103 1    
    98   53   54 1    
    99   53  104 1    
   100   53  105 1    
   101   54   55 1    
   102   54  106 1    
   103   54  107 1    
   104   55   56 1    
   105   55  108 1    
   106   55  109 1    
   107   56   57 1    
   108   56  110 1    
   109   56  111 1    
   110   57   58 1    
   111   57  112 1    
   112   57  113 1    
   113   58   59 1    
   114   58  114 1    
   115   58  115 1    
   116   59   60 1    
   117   59  116 1    
   118   59  117 1    
   119   60   61 1    
   120   60  118 1    
   121   60  119 1    
   122   61   62 1    
   123   61  120 1    
   124   61  121 1    
   125   62   63 1    
   126   62  122 1    
   127   62  123 1    
   128   63   64 1    
   129   63  124 1    
   130   63  125 1    
   131   64   65 1    
   132   64  126 1    
   133   64  127 1    
   134   65   66 1    
   135   65  128 1    
   136   65  129 1    
   137   66   67 1    
   138   66  130 1    
   139   66  131 1    
   140   67  132 1    
   141   67  133 1    
   142   67  134 1    
@<TRIPOS>SUBSTRUCTURE
     1 UNK         1 GROUP             0       ****    0 ROOT    
@<TRIPOS>MOLECULE
184_S_c1
126   133    1
SMALL
USER_CHARGES


@<TRIPOS>ATOM
      1 O1         -0.7671    2.6584    6.9907 O.co2     1 UNK         0.0000 
      2 N2          0.2486    3.1646    6.3357 N.am      1 UNK         0.0000 
      3 C3          1.6335    2.8712    6.7213 C.3       1 UNK         0.0000 
      4 C4          2.3195    1.7301    5.9281 C.3       1 UNK         0.0000 
      5 C5          1.3568    0.8280    5.1364 C.3       1 UNK         0.0000 
      6 C6          0.7641    1.5388    3.8928 C.3       1 UNK         0.0000 
      7 C7         -0.3026    2.7001    4.1066 C.3       1 UNK         0.0000 
      8 H8         -1.1412    2.1450    4.5035 H         1 UNK         0.0000 
      9 C9         -0.1847    3.7805    5.2411 C.2       1 UNK         0.0000 
     10 O10        -0.9457    4.7630    5.4221 O.co2     1 UNK         0.0000 
     11 N11        -0.9300    3.2792    2.9132 N.am      1 UNK         0.0000 
     12 C12        -0.7501    2.7647    1.6976 C.2       1 UNK         0.0000 
     13 O13         0.3303    2.7343    1.1195 O.2       1 UNK         0.0000 
     14 C14        -1.9827    2.1318    1.0629 C.3       1 UNK         0.0000 
     15 C15        -2.2198    0.6408    1.4796 C.3       1 UNK         0.0000 
     16 H16        -1.2836    0.1263    1.2587 H         1 UNK         0.0000 
     17 C17        -3.3125    0.0154    0.5990 C.3       1 UNK         0.0000 
     18 O18        -2.5102    0.2624    2.8493 O.3       1 UNK         0.0000 
     19 C19        -3.2847    0.9939    3.7193 C.2       1 UNK         0.0000 
     20 O20        -3.6099    2.1619    3.4893 O.2       1 UNK         0.0000 
     21 C21        -3.7385    0.2134    4.9794 C.3       1 UNK         0.0000 
     22 H22        -3.2262   -0.7476    4.9777 H         1 UNK         0.0000 
     23 N23        -3.4489    0.9299    6.2645 N.am      1 UNK         0.0000 
     24 C24        -3.1760    0.3545    7.4672 C.2       1 UNK         0.0000 
     25 O25        -2.8792   -0.8348    7.5084 O.2       1 UNK         0.0000 
     26 C26        -3.3567    1.1229    8.8539 C.3       1 UNK         0.0000 
     27 H27        -4.0182    0.4687    9.4325 H         1 UNK         0.0000 
     28 N28        -2.1315    1.3393    9.6084 N.2       1 UNK         0.0000 
     29 C29        -1.8503    2.5941    9.5276 C.2       1 UNK         0.0000 
     30 O30        -2.7656    3.3223    8.7712 O.3       1 UNK         0.0000 
     31 C31        -3.9395    2.5269    8.8089 C.3       1 UNK         0.0000 
     32 C32        -0.5980    3.2929    9.9454 C.ar      1 UNK         0.0000 
     33 C33        -0.1551    4.5346    9.3925 C.ar      1 UNK         0.0000 
     34 O34        -0.8179    5.2299    8.5567 O.co2     1 UNK         0.0000 
     35 C35         1.1389    4.9881    9.6762 C.ar      1 UNK         0.0000 
     36 C36         1.9927    4.2459   10.4942 C.ar      1 UNK         0.0000 
     37 C37         1.5662    3.0530   11.0414 C.ar      1 UNK         0.0000 
     38 C38         0.2823    2.5808   10.7736 C.ar      1 UNK         0.0000 
     39 C39        -5.2742   -0.0296    4.8623 C.3       1 UNK         0.0000 
     40 C40        -6.1958    1.2254    4.6651 C.3       1 UNK         0.0000 
     41 C41        -6.2296    2.2700    5.8162 C.3       1 UNK         0.0000 
     42 C42        -5.7739    3.7469    5.4941 C.3       1 UNK         0.0000 
     43 N43        -4.5502    4.3558    6.1385 N.am      1 UNK         0.0000 
     44 O44        -3.4620    3.5995    5.9804 O.co2     1 UNK         0.0000 
     45 C45        -4.4355    5.6074    6.7196 C.2       1 UNK         0.0000 
     46 O46        -3.3107    5.8741    7.1986 O.co2     1 UNK         0.0000 
     47 C47        -5.6050    6.4969    6.7256 C.2       1 UNK         0.0000 
     48 C48        -5.7668    7.8105    7.0386 C.2       1 UNK         0.0000 
     49 C49        -4.8096    8.8991    7.4870 C.3       1 UNK         0.0000 
     50 C50        -5.2110    9.6911    8.7764 C.3       1 UNK         0.0000 
     51 C51        -6.6924   10.1638    8.9810 C.3       1 UNK         0.0000 
     52 C52        -6.8267   11.2295   10.1202 C.3       1 UNK         0.0000 
     53 C53        -8.2720   11.6206   10.5553 C.3       1 UNK         0.0000 
     54 C54        -8.3732   12.8788   11.4798 C.3       1 UNK         0.0000 
     55 C55        -7.8821   12.6837   12.9426 C.3       1 UNK         0.0000 
     56 C56        -7.4475   13.9702   13.7080 C.3       1 UNK         0.0000 
     57 C57        -8.5407   14.9450   14.2374 C.3       1 UNK         0.0000 
     58 C58        -7.9065   16.0788   15.0971 C.3       1 UNK         0.0000 
     59 C59        -8.8126   17.2825   15.4729 C.3       1 UNK         0.0000 
     60 C60        -9.8714   17.0440   16.5795 C.3       1 UNK         0.0000 
     61 C61        -9.3316   16.9406   18.0337 C.3       1 UNK         0.0000 
     62 C62        -9.4995   18.2125   18.9060 C.3       1 UNK         0.0000 
     63 C63        -8.5085   19.3532   18.5951 C.3       1 UNK         0.0000 
     64 H64         1.6378    2.6238    7.7891 H         1 UNK         0.0000 
     65 H65         2.2306    3.7860    6.6699 H         1 UNK         0.0000 
     66 H66         2.9349    1.1385    6.6018 H         1 UNK         0.0000 
     67 H67         3.0238    2.1835    5.2327 H         1 UNK         0.0000 
     68 H68         0.5623    0.4614    5.7934 H         1 UNK         0.0000 
     69 H69         1.8847   -0.0690    4.8254 H         1 UNK         0.0000 
     70 H70         0.3070    0.7368    3.3039 H         1 UNK         0.0000 
     71 H71         1.5850    1.9110    3.2758 H         1 UNK         0.0000 
     72 H72        -1.9128    3.4680    3.0657 H         1 UNK         0.0000 
     73 H73        -1.7924    2.1660   -0.0094 H         1 UNK         0.0000 
     74 H74        -2.8650    2.7579    1.2133 H         1 UNK         0.0000 
     75 H75        -3.3742   -1.0616    0.7667 H         1 UNK         0.0000 
     76 H76        -3.0993    0.1793   -0.4567 H         1 UNK         0.0000 
     77 H77        -4.2862    0.4544    0.8297 H         1 UNK         0.0000 
     78 H78        -3.6677    1.9312    6.1825 H         1 UNK         0.0000 
     79 H79        -4.6441    2.7212    8.0303 H         1 UNK         0.0000 
     80 H80        -4.4677    2.7485    9.7446 H         1 UNK         0.0000 
     81 H81         1.5112    5.8887    9.2162 H         1 UNK         0.0000 
     82 H82         3.0055    4.5951   10.6684 H         1 UNK         0.0000 
     83 H83         2.2323    2.4523   11.6399 H         1 UNK         0.0000 
     84 H84         0.0048    1.6079   11.1642 H         1 UNK         0.0000 
     85 H85        -5.5996   -0.5741    5.7509 H         1 UNK         0.0000 
     86 H86        -5.4475   -0.7242    4.0353 H         1 UNK         0.0000 
     87 H87        -7.2063    0.8377    4.5602 H         1 UNK         0.0000 
     88 H88        -6.0225    1.6968    3.6947 H         1 UNK         0.0000 
     89 H89        -7.2827    2.3384    6.0821 H         1 UNK         0.0000 
     90 H90        -5.8124    1.8370    6.7148 H         1 UNK         0.0000 
     91 H91        -5.6856    3.8747    4.4145 H         1 UNK         0.0000 
     92 H92        -6.6864    4.2946    5.7083 H         1 UNK         0.0000 
     93 H93        -6.5296    6.0676    6.4235 H         1 UNK         0.0000 
     94 H94        -6.7829    8.1762    6.9243 H         1 UNK         0.0000 
     95 H95        -4.7669    9.6119    6.6609 H         1 UNK         0.0000 
     96 H96        -3.7817    8.5275    7.5747 H         1 UNK         0.0000 
     97 H97        -4.5824   10.5841    8.8000 H         1 UNK         0.0000 
     98 H98        -4.9063    9.1142    9.6530 H         1 UNK         0.0000 
     99 H99        -7.0837   10.5828    8.0497 H         1 UNK         0.0000 
    100 H100       -7.3245    9.3017    9.2078 H         1 UNK         0.0000 
    101 H101       -6.2863   10.8763   10.9984 H         1 UNK         0.0000 
    102 H102       -6.3109   12.1380    9.8036 H         1 UNK         0.0000 
    103 H103       -8.7536   10.7683   11.0418 H         1 UNK         0.0000 
    104 H104       -8.8661   11.8100    9.6592 H         1 UNK         0.0000 
    105 H105       -9.4144   13.2074   11.5078 H         1 UNK         0.0000 
    106 H106       -7.8265   13.7033   11.0166 H         1 UNK         0.0000 
    107 H107       -7.0098   12.0291   12.9193 H         1 UNK         0.0000 
    108 H108       -8.6301   12.1380   13.5224 H         1 UNK         0.0000 
    109 H109       -6.7460   14.5320   13.0863 H         1 UNK         0.0000 
    110 H110       -6.8577   13.6479   14.5682 H         1 UNK         0.0000 
    111 H111       -9.2740   14.4027   14.8377 H         1 UNK         0.0000 
    112 H112       -9.0923   15.3764   13.3992 H         1 UNK         0.0000 
    113 H113       -7.0555   16.4837   14.5442 H         1 UNK         0.0000 
    114 H114       -7.4769   15.6506   16.0057 H         1 UNK         0.0000 
    115 H115       -9.3192   17.6418   14.5752 H         1 UNK         0.0000 
    116 H116       -8.1694   18.1085   15.7817 H         1 UNK         0.0000 
    117 H117      -10.4349   16.1389   16.3453 H         1 UNK         0.0000 
    118 H118      -10.6059   17.8499   16.5253 H         1 UNK         0.0000 
    119 H119       -8.2865   16.6215   18.0464 H         1 UNK         0.0000 
    120 H120       -9.8738   16.1347   18.5294 H         1 UNK         0.0000 
    121 H121       -9.3798   17.9313   19.9535 H         1 UNK         0.0000 
    122 H122      -10.5225   18.5880   18.8316 H         1 UNK         0.0000 
    123 H123       -7.4722   19.0370   18.7227 H         1 UNK         0.0000 
    124 H124       -8.6682   20.1982   19.2652 H         1 UNK         0.0000 
    125 H125       -8.6207   19.7239   17.5763 H         1 UNK         0.0000 
    126 Fe126      -1.9622    4.3008    7.1671 Fe        1 UNK         0.0000 
@<TRIPOS>BOND
     1    1    2 1    
     2    1  126 nc   
     3    2    3 1    
     4    2    9 am   BACKBONE|DICT|INTERRES
     5    3    4 1    
     6    3   64 1    
     7    3   65 1    
     8    4    5 1    
     9    4   66 1    
    10    4   67 1    
    11    5    6 1    
    12    5   68 1    
    13    5   69 1    
    14    6    7 1    
    15    6   70 1    
    16    6   71 1    
    17    7    8 1    
    18    7    9 1    
    19    7   11 1    
    20    9   10 2    
    21   10  126 nc   
    22   11   12 am   BACKBONE|DICT|INTERRES
    23   11   72 1    
    24   12   13 2    
    25   12   14 1    
    26   14   73 1    
    27   14   74 1    
    28   14   15 1    
    29   15   17 1    
    30   15   18 1    
    31   15   16 1    
    32   17   75 1    
    33   17   76 1    
    34   17   77 1    
    35   18   19 1    
    36   19   20 2    
    37   19   21 1    
    38   21   22 1    
    39   21   23 1    
    40   21   39 1    
    41   23   24 am   BACKBONE|DICT|INTERRES
    42   23   78 1    
    43   24   25 2    
    44   24   26 1    
    45   26   27 1    
    46   26   28 1    
    47   26   31 1    
    48   28   29 2    
    49   29   30 1    
    50   29   32 1    
    51   30   31 1    
    52   30  126 nc   
    53   31   79 1    
    54   31   80 1    
    55   32   33 ar   
    56   32   38 ar   
    57   33   34 1    
    58   33   35 ar   
    59   34  126 nc   
    60   35   36 ar   
    61   35   81 1    
    62   36   37 ar   
    63   36   82 1    
    64   37   38 ar   
    65   37   83 1    
    66   38   84 1    
    67   39   40 1    
    68   39   85 1    
    69   39   86 1    
    70   40   41 1    
    71   40   87 1    
    72   40   88 1    
    73   41   42 1    
    74   41   89 1    
    75   41   90 1    
    76   42   43 1    
    77   42   91 1    
    78   42   92 1    
    79   43   44 1    
    80   43   45 am   BACKBONE|DICT|INTERRES
    81   44  126 nc   
    82   45   46 2    
    83   45   47 1    
    84   46  126 nc   
    85   47   48 2    
    86   47   93 1    
    87   48   49 1    
    88   48   94 1    
    89   49   50 1    
    90   49   95 1    
    91   49   96 1    
    92   50   51 1    
    93   50   97 1    
    94   50   98 1    
    95   51   52 1    
    96   51   99 1    
    97   51  100 1    
    98   52   53 1    
    99   52  101 1    
   100   52  102 1    
   101   53   54 1    
   102   53  103 1    
   103   53  104 1    
   104   54   55 1    
   105   54  105 1    
   106   54  106 1    
   107   55   56 1    
   108   55  107 1    
   109   55  108 1    
   110   56   57 1    
   111   56  109 1    
   112   56  110 1    
   113   57   58 1    
   114   57  111 1    
   115   57  112 1    
   116   58   59 1    
   117   58  113 1    
   118   58  114 1    
   119   59   60 1    
   120   59  115 1    
   121   59  116 1    
   122   60   61 1    
   123   60  117 1    
   124   60  118 1    
   125   61   62 1    
   126   61  119 1    
   127   61  120 1    
   128   62   63 1    
   129   62  121 1    
   130   62  122 1    
   131   63  123 1    
   132   63  124 1    
   133   63  125 1    
@<TRIPOS>SUBSTRUCTURE
     1 UNK         1 GROUP             0       ****    0 ROOT    
@<TRIPOS>MOLECULE
184_T_c1
134   141    1
SMALL
USER_CHARGES


@<TRIPOS>ATOM
      1 O1         -5.2492    5.1834    3.2633 O.co2     1 UNK         0.0000 
      2 N2         -4.0913    5.0462    2.5492 N.am      1 UNK         0.0000 
      3 C3         -4.2614    4.9197    1.0803 C.3       1 UNK         0.0000 
      4 C4         -3.3343    5.7363    0.1193 C.3       1 UNK         0.0000 
      5 C5         -1.8457    5.3400    0.1340 C.3       1 UNK         0.0000 
      6 C6         -1.1845    5.6400    1.4978 C.3       1 UNK         0.0000 
      7 C7         -1.5607    4.6738    2.6601 C.3       1 UNK         0.0000 
      8 H8         -1.1068    5.1042    3.5482 H         1 UNK         0.0000 
      9 C9         -3.0400    4.4410    3.1834 C.2       1 UNK         0.0000 
     10 O10        -3.2841    3.6932    4.1392 O.co2     1 UNK         0.0000 
     11 N11        -0.9676    3.3433    2.4150 N.am      1 UNK         0.0000 
     12 C12        -0.2743    2.6034    3.2809 C.2       1 UNK         0.0000 
     13 O13         0.4367    3.0578    4.1584 O.2       1 UNK         0.0000 
     14 C14        -0.4564    1.0860    3.1322 C.3       1 UNK         0.0000 
     15 C15        -1.9512    0.6560    3.1615 C.3       1 UNK         0.0000 
     16 H16        -2.4690    1.2123    3.9346 H         1 UNK         0.0000 
     17 C17        -2.6655    0.8658    1.8029 C.3       1 UNK         0.0000 
     18 O18        -1.9589   -0.7272    3.4874 O.3       1 UNK         0.0000 
     19 C19        -3.0840   -1.4784    3.6940 C.2       1 UNK         0.0000 
     20 O20        -3.1616   -2.5916    3.1561 O.2       1 UNK         0.0000 
     21 C21        -4.2297   -0.9396    4.5887 C.3       1 UNK         0.0000 
     22 H22        -4.5322   -1.8429    5.1255 H         1 UNK         0.0000 
     23 N23        -3.8145    0.0973    5.5653 N.am      1 UNK         0.0000 
     24 C24        -3.9245   -0.0289    6.8993 C.2       1 UNK         0.0000 
     25 O25        -4.0802   -1.1245    7.4403 O.2       1 UNK         0.0000 
     26 C26        -3.8921    1.2540    7.7953 C.3       1 UNK         0.0000 
     27 H27        -3.9686    0.9154    8.8323 H         1 UNK         0.0000 
     28 N28        -2.6889    2.0302    7.6364 N.2       1 UNK         0.0000 
     29 C29        -3.0376    3.1326    7.1020 C.2       1 UNK         0.0000 
     30 O30        -4.3837    3.2235    6.7176 O.3       1 UNK         0.0000 
     31 C31        -5.0346    2.2266    7.4834 C.3       1 UNK         0.0000 
     32 C32        -2.1599    4.2888    6.7904 C.ar      1 UNK         0.0000 
     33 C33        -2.6372    5.5161    6.2972 C.ar      1 UNK         0.0000 
     34 O34        -3.8766    5.7155    6.0145 O.co2     1 UNK         0.0000 
     35 C35        -1.7220    6.5489    6.0454 C.ar      1 UNK         0.0000 
     36 C36        -0.3464    6.3664    6.2787 C.ar      1 UNK         0.0000 
     37 C37         0.1245    5.1585    6.7590 C.ar      1 UNK         0.0000 
     38 C38        -0.7674    4.1202    7.0141 C.ar      1 UNK         0.0000 
     39 C39        -5.5405   -0.5164    3.8417 C.3       1 UNK         0.0000 
     40 C40        -6.7537   -0.3827    4.8231 C.3       1 UNK         0.0000 
     41 C41        -8.0765    0.2360    4.2985 C.3       1 UNK         0.0000 
     42 C42        -8.1718    1.7662    3.9957 C.3       1 UNK         0.0000 
     43 N43        -7.3801    2.6593    4.8376 N.am      1 UNK         0.0000 
     44 O44        -6.0623    2.5670    4.5334 O.co2     1 UNK         0.0000 
     45 C45        -7.8819    3.6711    5.6349 C.2       1 UNK         0.0000 
     46 O46        -6.9608    4.4657    5.9756 O.co2     1 UNK         0.0000 
     47 C47        -9.4352    3.9657    6.1097 C.3       1 UNK         0.0000 
     48 C48       -10.7390    2.9866    6.4839 C.3       1 UNK         0.0000 
     49 C49       -12.3964    3.0097    6.2899 C.3       1 UNK         0.0000 
     50 C50       -13.4879    2.8889    7.5100 C.3       1 UNK         0.0000 
     51 C51       -15.0523    2.3614    7.3276 C.3       1 UNK         0.0000 
     52 C52       -16.3635    2.8897    8.1930 C.3       1 UNK         0.0000 
     53 C53       -17.8241    2.1210    8.2399 C.3       1 UNK         0.0000 
     54 C54       -19.1562    2.6891    9.0246 C.3       1 UNK         0.0000 
     55 C55       -20.6382    1.9744    8.9702 C.3       1 UNK         0.0000 
     56 C56       -21.8298    2.2946   10.0475 C.3       1 UNK         0.0000 
     57 C57       -23.4092    2.1032    9.6978 C.3       1 UNK         0.0000 
     58 C58       -24.5468    2.0740   10.8569 C.3       1 UNK         0.0000 
     59 C59       -26.1168    2.0075   10.4806 C.3       1 UNK         0.0000 
     60 C60       -27.2395    2.0028   11.6300 C.3       1 UNK         0.0000 
     61 C61       -28.7591    1.7915   11.2067 C.3       1 UNK         0.0000 
     62 C62       -29.8939    1.8963   12.3050 C.3       1 UNK         0.0000 
     63 C63       -31.3564    1.6376   11.7874 C.3       1 UNK         0.0000 
     64 C64       -32.5067    1.4567   12.8398 C.3       1 UNK         0.0000 
     65 C65       -33.4165    2.6848   13.1013 C.3       1 UNK         0.0000 
     66 H66        -5.2877    5.1829    0.8225 H         1 UNK         0.0000 
     67 H67        -4.2014    3.8517    0.8509 H         1 UNK         0.0000 
     68 H68        -3.4467    6.7954    0.3573 H         1 UNK         0.0000 
     69 H69        -3.6930    5.6374   -0.9096 H         1 UNK         0.0000 
     70 H70        -1.3114    5.8546   -0.6637 H         1 UNK         0.0000 
     71 H71        -1.7266    4.2813   -0.1057 H         1 UNK         0.0000 
     72 H72        -1.3785    6.6719    1.8060 H         1 UNK         0.0000 
     73 H73        -0.1002    5.6082    1.3546 H         1 UNK         0.0000 
     74 H74        -1.2490    2.8869    1.5710 H         1 UNK         0.0000 
     75 H75         0.0885    0.6263    3.9637 H         1 UNK         0.0000 
     76 H76         0.0287    0.7345    2.2215 H         1 UNK         0.0000 
     77 H77        -2.8830    1.9115    1.6316 H         1 UNK         0.0000 
     78 H78        -3.6320    0.3718    1.7486 H         1 UNK         0.0000 
     79 H79        -2.0760    0.5015    0.9643 H         1 UNK         0.0000 
     80 H80        -3.7370    1.0326    5.2019 H         1 UNK         0.0000 
     81 H81        -5.8709    1.7957    6.9413 H         1 UNK         0.0000 
     82 H82        -5.4462    2.7175    8.3692 H         1 UNK         0.0000 
     83 H83        -2.0750    7.4849    5.6430 H         1 UNK         0.0000 
     84 H84         0.3417    7.1696    6.0603 H         1 UNK         0.0000 
     85 H85         1.1812    4.9892    6.9217 H         1 UNK         0.0000 
     86 H86        -0.3705    3.1731    7.3504 H         1 UNK         0.0000 
     87 H87        -5.7872   -1.2581    3.0723 H         1 UNK         0.0000 
     88 H88        -5.3809    0.4280    3.3107 H         1 UNK         0.0000 
     89 H89        -6.9628   -1.3722    5.2220 H         1 UNK         0.0000 
     90 H90        -6.4552    0.1884    5.7017 H         1 UNK         0.0000 
     91 H91        -8.4428   -0.3231    3.4395 H         1 UNK         0.0000 
     92 H92        -8.8029    0.0693    5.0919 H         1 UNK         0.0000 
     93 H93        -7.8742    1.9867    2.9621 H         1 UNK         0.0000 
     94 H94        -9.2254    2.0389    4.0556 H         1 UNK         0.0000 
     95 H95        -9.7920    4.8797    5.5987 H         1 UNK         0.0000 
     96 H96        -9.0927    4.2716    7.0928 H         1 UNK         0.0000 
     97 H97       -10.8129    2.9634    5.3977 H         1 UNK         0.0000 
     98 H98       -11.0367    3.7161    7.2551 H         1 UNK         0.0000 
     99 H99       -12.6921    2.2544    5.5528 H         1 UNK         0.0000 
    100 H100      -12.6697    3.9156    5.7434 H         1 UNK         0.0000 
    101 H101      -13.4918    3.8602    8.0295 H         1 UNK         0.0000 
    102 H102      -13.0300    2.2109    8.2305 H         1 UNK         0.0000 
    103 H103      -15.0066    1.2725    7.4629 H         1 UNK         0.0000 
    104 H104      -15.2998    2.5048    6.2664 H         1 UNK         0.0000 
    105 H105      -16.5642    3.8939    7.8162 H         1 UNK         0.0000 
    106 H106      -16.0624    3.0656    9.2308 H         1 UNK         0.0000 
    107 H107      -17.6379    1.1211    8.6378 H         1 UNK         0.0000 
    108 H108      -18.1159    1.9262    7.2061 H         1 UNK         0.0000 
    109 H109      -19.3043    3.7169    8.6821 H         1 UNK         0.0000 
    110 H110      -18.8867    2.7946   10.0786 H         1 UNK         0.0000 
    111 H111      -20.4765    0.8946    9.0223 H         1 UNK         0.0000 
    112 H112      -21.0452    2.1352    7.9682 H         1 UNK         0.0000 
    113 H113      -21.7038    3.3141   10.4189 H         1 UNK         0.0000 
    114 H114      -21.6283    1.6667   10.9167 H         1 UNK         0.0000 
    115 H115      -23.6870    2.9101    9.0180 H         1 UNK         0.0000 
    116 H116      -23.5265    1.1949    9.1043 H         1 UNK         0.0000 
    117 H117      -24.4125    2.9515   11.4910 H         1 UNK         0.0000 
    118 H118      -24.3387    1.2262   11.5147 H         1 UNK         0.0000 
    119 H119      -26.2899    1.1198    9.8686 H         1 UNK         0.0000 
    120 H120      -26.3397    2.8473    9.8195 H         1 UNK         0.0000 
    121 H121      -26.9938    1.2216   12.3508 H         1 UNK         0.0000 
    122 H122      -27.1774    2.9364   12.1925 H         1 UNK         0.0000 
    123 H123      -28.8458    0.8039   10.7503 H         1 UNK         0.0000 
    124 H124      -29.0087    2.4948   10.4098 H         1 UNK         0.0000 
    125 H125      -29.8705    2.8829   12.7728 H         1 UNK         0.0000 
    126 H126      -29.6860    1.1881   13.1095 H         1 UNK         0.0000 
    127 H127      -31.3400    0.7244   11.1914 H         1 UNK         0.0000 
    128 H128      -31.6463    2.4203   11.0827 H         1 UNK         0.0000 
    129 H129      -32.1193    1.0923   13.7939 H         1 UNK         0.0000 
    130 H130      -33.1651    0.6570   12.4936 H         1 UNK         0.0000 
    131 H131      -32.8771    3.4989   13.5866 H         1 UNK         0.0000 
    132 H132      -34.2485    2.4260   13.7598 H         1 UNK         0.0000 
    133 H133      -33.8665    3.0791   12.1881 H         1 UNK         0.0000 
    134 Fe134      -5.0049    4.2248    5.1056 Fe        1 UNK         0.0000 
@<TRIPOS>BOND
     1    1    2 1    
     2    1  134 nc   
     3    2    3 1    
     4    2    9 am   BACKBONE|DICT|INTERRES
     5    3    4 1    
     6    3   66 1    
     7    3   67 1    
     8    4    5 1    
     9    4   68 1    
    10    4   69 1    
    11    5    6 1    
    12    5   70 1    
    13    5   71 1    
    14    6    7 1    
    15    6   72 1    
    16    6   73 1    
    17    7    8 1    
    18    7    9 1    
    19    7   11 1    
    20    9   10 2    
    21   10  134 nc   
    22   11   12 am   BACKBONE|DICT|INTERRES
    23   11   74 1    
    24   12   13 2    
    25   12   14 1    
    26   14   15 1    
    27   14   75 1    
    28   14   76 1    
    29   15   16 1    
    30   15   17 1    
    31   15   18 1    
    32   17   77 1    
    33   17   78 1    
    34   17   79 1    
    35   18   19 1    
    36   19   20 2    
    37   19   21 1    
    38   21   22 1    
    39   21   23 1    
    40   21   39 1    
    41   23   24 am   BACKBONE|DICT|INTERRES
    42   23   80 1    
    43   24   25 2    
    44   24   26 1    
    45   26   27 1    
    46   26   28 1    
    47   26   31 1    
    48   28   29 2    
    49   29   30 1    
    50   29   32 1    
    51   30   31 1    
    52   30  134 nc   
    53   31   81 1    
    54   31   82 1    
    55   32   33 ar   
    56   32   38 ar   
    57   33   34 1    
    58   33   35 ar   
    59   34  134 nc   
    60   35   36 ar   
    61   35   83 1    
    62   36   37 ar   
    63   36   84 1    
    64   37   38 ar   
    65   37   85 1    
    66   38   86 1    
    67   39   40 1    
    68   39   87 1    
    69   39   88 1    
    70   40   41 1    
    71   40   89 1    
    72   40   90 1    
    73   41   42 1    
    74   41   91 1    
    75   41   92 1    
    76   42   43 1    
    77   42   93 1    
    78   42   94 1    
    79   43   44 1    
    80   43   45 am   BACKBONE|DICT|INTERRES
    81   44  134 nc   
    82   45   46 2    
    83   45   47 1    
    84   46  134 nc   
    85   47   48 1    
    86   47   95 1    
    87   47   96 1    
    88   48   49 1    
    89   48   97 1    
    90   48   98 1    
    91   49   50 1    
    92   49   99 1    
    93   49  100 1    
    94   50   51 1    
    95   50  101 1    
    96   50  102 1    
    97   51   52 1    
    98   51  103 1    
    99   51  104 1    
   100   52   53 1    
   101   52  105 1    
   102   52  106 1    
   103   53   54 1    
   104   53  107 1    
   105   53  108 1    
   106   54   55 1    
   107   54  109 1    
   108   54  110 1    
   109   55   56 1    
   110   55  111 1    
   111   55  112 1    
   112   56   57 1    
   113   56  113 1    
   114   56  114 1    
   115   57   58 1    
   116   57  115 1    
   117   57  116 1    
   118   58   59 1    
   119   58  117 1    
   120   58  118 1    
   121   59   60 1    
   122   59  119 1    
   123   59  120 1    
   124   60   61 1    
   125   60  121 1    
   126   60  122 1    
   127   61   62 1    
   128   61  123 1    
   129   61  124 1    
   130   62   63 1    
   131   62  125 1    
   132   62  126 1    
   133   63   64 1    
   134   63  127 1    
   135   63  128 1    
   136   64   65 1    
   137   64  129 1    
   138   64  130 1    
   139   65  131 1    
   140   65  132 1    
   141   65  133 1    
@<TRIPOS>SUBSTRUCTURE
     1 UNK         1 GROUP             0       ****    0 ROOT    
@<TRIPOS>MOLECULE
185_A_r_c1
51   57    1
SMALL
USER_CHARGES


@<TRIPOS>ATOM
      1 C1          6.0280   -0.2330   -2.7104 C.ar      1 UNK         0.0000 
      2 C2          6.8545    0.1992   -3.7504 C.ar      1 UNK         0.0000 
      3 C3          7.6724   -0.7422   -4.3827 C.ar      1 UNK         0.0000 
      4 C4          7.4450   -2.0983   -4.1303 C.ar      1 UNK         0.0000 
      5 O5          8.4021   -2.8943   -4.1677 O.co2     1 UNK         0.0000 
      6 C6          6.3083   -2.5146   -3.4221 C.ar      1 UNK         0.0000 
      7 O7          6.0004   -3.7630   -3.3008 O.co2     1 UNK         0.0000 
      8 C8          6.0281   -1.6036   -2.3914 C.ar      1 UNK         0.0000 
      9 C9          6.6101   -1.9518   -1.0369 C.2       1 UNK         0.0000 
     10 O10         6.6321   -1.1571   -0.1014 O.2       1 UNK         0.0000 
     11 N11         7.2017   -3.1822   -0.9206 N.am      1 UNK         0.0000 
     12 C12         6.5016   -3.9849    0.1301 C.3       1 UNK         0.0000 
     13 H13         6.9187   -4.9760    0.0212 H         1 UNK         0.0000 
     14 C14         6.9140   -3.6323    1.5876 C.3       1 UNK         0.0000 
     15 O15         6.5379   -4.6665    2.4823 O.3       1 UNK         0.0000 
     16 C16         4.9392   -4.0927   -0.0426 C.3       1 UNK         0.0000 
     17 C17         4.3380   -5.5006   -0.0273 C.3       1 UNK         0.0000 
     18 C18         4.7353   -6.3479   -1.2490 C.3       1 UNK         0.0000 
     19 C19         6.0614   -7.0886   -1.0640 C.3       1 UNK         0.0000 
     20 N20         7.2700   -6.5682   -1.7549 N.am      1 UNK         0.0000 
     21 C21         8.3910   -7.2105   -1.2451 C.2       1 UNK         0.0000 
     22 O22         8.4987   -7.7471   -0.1493 O.2       1 UNK         0.0000 
     23 C23         9.4694   -7.2666   -2.2904 C.ar      1 UNK         0.0000 
     24 C24         9.6035   -6.1105   -3.0505 C.ar      1 UNK         0.0000 
     25 O25         9.5118   -4.9792   -2.4526 O.co2     1 UNK         0.0000 
     26 C26         9.1748   -6.2733   -4.3671 C.ar      1 UNK         0.0000 
     27 O27         8.1369   -5.4570   -4.7131 O.3       1 UNK         0.0000 
     28 C28         9.3894   -7.4771   -5.0390 C.ar      1 UNK         0.0000 
     29 C29         9.7950   -8.5866   -4.2834 C.ar      1 UNK         0.0000 
     30 C30         9.7534   -8.5081   -2.8872 C.ar      1 UNK         0.0000 
     31 H31         5.6561    0.5004   -2.0033 H         1 UNK         0.0000 
     32 H32         7.0275    1.2548   -3.8845 H         1 UNK         0.0000 
     33 H33         8.5551   -0.4135   -4.9182 H         1 UNK         0.0000 
     34 H34         8.1086   -2.9213   -0.5283 H         1 UNK         0.0000 
     35 H35         6.4480   -2.6990    1.9166 H         1 UNK         0.0000 
     36 H36         7.9916   -3.4772    1.6478 H         1 UNK         0.0000 
     37 H37         7.2706   -5.2718    2.6395 H         1 UNK         0.0000 
     38 H38         4.5949   -3.6240   -0.9659 H         1 UNK         0.0000 
     39 H39         4.4519   -3.5099    0.7443 H         1 UNK         0.0000 
     40 H40         4.5648   -6.0071    0.9152 H         1 UNK         0.0000 
     41 H41         3.2553   -5.3948   -0.0283 H         1 UNK         0.0000 
     42 H42         4.7127   -5.7699   -2.1690 H         1 UNK         0.0000 
     43 H43         3.9640   -7.1107   -1.3817 H         1 UNK         0.0000 
     44 H44         5.9032   -8.1220   -1.4019 H         1 UNK         0.0000 
     45 H45         6.2007   -7.2133    0.0183 H         1 UNK         0.0000 
     46 H46         7.2738   -6.8843   -2.7222 H         1 UNK         0.0000 
     47 H47         9.1008   -7.6080   -6.0753 H         1 UNK         0.0000 
     48 H48         9.9334   -9.5443   -4.7643 H         1 UNK         0.0000 
     49 H49         9.7550   -9.4226   -2.3099 H         1 UNK         0.0000 
     50 Fe50        7.7567   -4.4106   -2.9069 Fe        1 UNK         0.0000 
     51 H51         8.1886   -5.2127   -5.6618 H         1 UNK         0.0000 
@<TRIPOS>BOND
     1    1    2 ar   
     2    1    8 ar   
     3    1   31 1    
     4    2    3 ar   
     5    2   32 1    
     6    3    4 ar   
     7    3   33 1    
     8    4    5 1    
     9    4    6 ar   
    10    5   50 nc   
    11    6    7 1    
    12    6    8 ar   
    13    7   50 nc   
    14    8    9 1    
    15    9   10 2    
    16    9   11 am   BACKBONE|DICT|INTERRES
    17   11   12 1    
    18   11   34 1    
    19   11   50 nc   
    20   12   13 1    
    21   12   14 1    
    22   12   16 1    
    23   14   15 1    
    24   14   35 1    
    25   14   36 1    
    26   15   37 1    
    27   16   17 1    
    28   16   38 1    
    29   16   39 1    
    30   17   18 1    
    31   17   40 1    
    32   17   41 1    
    33   18   19 1    
    34   18   42 1    
    35   18   43 1    
    36   19   20 1    
    37   19   44 1    
    38   19   45 1    
    39   20   21 am   BACKBONE|DICT|INTERRES
    40   20   46 1    
    41   20   50 nc   
    42   21   22 2    
    43   21   23 1    
    44   23   24 ar   
    45   23   30 ar   
    46   24   25 1    
    47   24   26 ar   
    48   25   50 nc   
    49   26   27 1    
    50   26   28 ar   
    51   27   51 1    
    52   27   50 nc   
    53   28   29 ar   
    54   28   47 1    
    55   29   30 ar   
    56   29   48 1    
    57   30   49 1    
@<TRIPOS>SUBSTRUCTURE
     1 UNK         1 GROUP             0       ****    0 ROOT    
@<TRIPOS>MOLECULE
185_A_s_c1
49   55    1
SMALL
USER_CHARGES


@<TRIPOS>ATOM
      1 C1          1.2541   -1.8971   -1.0174 C.ar      1 UNK         0.0000 
      2 C2         -0.1301   -1.8962   -0.9100 C.ar      1 UNK         0.0000 
      3 C3         -0.7915   -3.0790   -0.6195 C.ar      1 UNK         0.0000 
      4 C4         -0.1040   -4.2921   -0.5611 C.ar      1 UNK         0.0000 
      5 O5         -0.8528   -5.2828   -0.2517 O.co2     1 UNK         0.0000 
      6 C6          1.3069   -4.3291   -0.8117 C.ar      1 UNK         0.0000 
      7 O7          1.9700   -5.4237   -1.0344 O.co2     1 UNK         0.0000 
      8 C8          1.9978   -3.0853   -0.8794 C.ar      1 UNK         0.0000 
      9 C9          3.5091   -2.9256   -0.7388 C.2       1 UNK         0.0000 
     10 O10         4.1440   -2.2095   -1.5190 O.2       1 UNK         0.0000 
     11 N11         4.1536   -3.3105    0.3911 N.am      1 UNK         0.0000 
     12 C12         3.9349   -4.4252    1.3327 C.3       1 UNK         0.0000 
     13 H13         3.6459   -5.2533    0.7077 H         1 UNK         0.0000 
     14 C14         2.7709   -4.2379    2.3755 C.3       1 UNK         0.0000 
     15 O15         2.0649   -5.4166    2.6707 O.co2     1 UNK         0.0000 
     16 C16         5.2926   -4.8767    1.9672 C.3       1 UNK         0.0000 
     17 C17         5.3567   -6.2776    2.6492 C.3       1 UNK         0.0000 
     18 C18         5.6693   -7.4911    1.7494 C.3       1 UNK         0.0000 
     19 C19         4.6951   -7.8559    0.6021 C.3       1 UNK         0.0000 
     20 N20         3.3499   -8.3752    0.9140 N.am      1 UNK         0.0000 
     21 C21         3.0985   -9.4552    1.6980 C.2       1 UNK         0.0000 
     22 O22         3.9043  -10.0018    2.4546 O.2       1 UNK         0.0000 
     23 C23         1.8131  -10.1146    1.2548 C.ar      1 UNK         0.0000 
     24 C24         0.7183   -9.2977    0.9464 C.ar      1 UNK         0.0000 
     25 O25         0.2812   -8.4820    1.8445 O.co2     1 UNK         0.0000 
     26 C26         0.2015   -9.4085   -0.3544 C.ar      1 UNK         0.0000 
     27 O27        -0.3961   -8.4601   -0.9382 O.co2     1 UNK         0.0000 
     28 C28         0.4110  -10.5879   -1.0768 C.ar      1 UNK         0.0000 
     29 C29         1.1569  -11.6243   -0.5117 C.ar      1 UNK         0.0000 
     30 C30         1.9037  -11.3722    0.6420 C.ar      1 UNK         0.0000 
     31 H31         1.7646   -0.9563   -1.1777 H         1 UNK         0.0000 
     32 H32        -0.6973   -0.9831   -1.0140 H         1 UNK         0.0000 
     33 H33        -1.8595   -3.0613   -0.4483 H         1 UNK         0.0000 
     34 H34         5.0502   -2.8771    0.4596 H         1 UNK         0.0000 
     35 H35         2.0773   -3.4989    1.9784 H         1 UNK         0.0000 
     36 H36         3.1754   -3.7189    3.2507 H         1 UNK         0.0000 
     37 H37         5.6139   -4.1211    2.6864 H         1 UNK         0.0000 
     38 H38         6.0652   -4.8489    1.2011 H         1 UNK         0.0000 
     39 H39         4.4602   -6.4767    3.2359 H         1 UNK         0.0000 
     40 H40         6.1513   -6.2306    3.3952 H         1 UNK         0.0000 
     41 H41         5.8052   -8.3639    2.3841 H         1 UNK         0.0000 
     42 H42         6.6496   -7.3250    1.3022 H         1 UNK         0.0000 
     43 H43         5.2011   -8.5592   -0.0650 H         1 UNK         0.0000 
     44 H44         4.5471   -6.9791   -0.0235 H         1 UNK         0.0000 
     45 H45         2.8035   -8.5344    0.0791 H         1 UNK         0.0000 
     46 H46        -0.0179  -10.6946   -2.0633 H         1 UNK         0.0000 
     47 H47         1.2549  -12.5620   -1.0308 H         1 UNK         0.0000 
     48 H48         2.6457  -12.0907    0.9714 H         1 UNK         0.0000 
     49 Fe49        0.8304   -6.7122    0.5874 Fe        1 UNK         0.0000 
@<TRIPOS>BOND
     1    1    2 ar   
     2    1    8 ar   
     3    1   31 1    
     4    2    3 ar   
     5    2   32 1    
     6    3    4 ar   
     7    3   33 1    
     8    4    5 1    
     9    4    6 ar   
    10    5   49 nc   
    11    6    7 1    
    12    6    8 ar   
    13    7   49 nc   
    14    8    9 1    
    15    9   10 2    
    16    9   11 am   BACKBONE|DICT|INTERRES
    17   11   34 1    
    18   11   12 1    
    19   12   14 1    
    20   12   16 1    
    21   12   13 1    
    22   14   15 1    
    23   14   35 1    
    24   14   36 1    
    25   15   49 nc   
    26   16   17 1    
    27   16   37 1    
    28   16   38 1    
    29   17   18 1    
    30   17   39 1    
    31   17   40 1    
    32   18   19 1    
    33   18   41 1    
    34   18   42 1    
    35   19   20 1    
    36   19   43 1    
    37   19   44 1    
    38   20   21 am   BACKBONE|DICT|INTERRES
    39   20   45 1    
    40   20   49 nc   
    41   21   22 2    
    42   21   23 1    
    43   23   24 ar   
    44   23   30 ar   
    45   24   25 1    
    46   24   26 ar   
    47   25   49 nc   
    48   26   27 1    
    49   26   28 ar   
    50   27   49 nc   
    51   28   29 ar   
    52   28   46 1    
    53   29   30 ar   
    54   29   47 1    
    55   30   48 1    
@<TRIPOS>SUBSTRUCTURE
     1 UNK         1 GROUP             0       ****    0 ROOT    
@<TRIPOS>MOLECULE
185_B_c1
52   58    1
SMALL
USER_CHARGES


@<TRIPOS>ATOM
      1 C1          4.6494   -1.5034   -3.2444 C.ar      1 UNK         0.0000 
      2 C2          4.2504   -1.5238   -4.5806 C.ar      1 UNK         0.0000 
      3 C3          3.7982   -2.7326   -5.1135 C.ar      1 UNK         0.0000 
      4 C4          3.5105   -3.7898   -4.2499 C.ar      1 UNK         0.0000 
      5 O5          3.6249   -4.9535   -4.6991 O.co2     1 UNK         0.0000 
      6 C6          3.4522   -3.5844   -2.8663 C.ar      1 UNK         0.0000 
      7 O7          2.9123   -4.4157   -2.0169 O.co2     1 UNK         0.0000 
      8 C8          4.4350   -2.6600   -2.4707 C.ar      1 UNK         0.0000 
      9 C9          5.6011   -3.1919   -1.6768 C.2       1 UNK         0.0000 
     10 O10         6.5150   -2.4866   -1.2738 O.2       1 UNK         0.0000 
     11 N11         5.5103   -4.4967   -1.3196 N.am      1 UNK         0.0000 
     12 C12         5.1020   -4.6377    0.1126 C.3       1 UNK         0.0000 
     13 H13         4.2462   -5.2900    0.0713 H         1 UNK         0.0000 
     14 C14         4.4959   -3.4268    0.9344 C.3       1 UNK         0.0000 
     15 N15         3.1382   -2.9686    0.3628 N.4       1 UNK         0.0000 
     16 H16         3.2137   -2.8001   -0.6427 H         1 UNK         0.0000 
     17 H17         2.4342   -3.6897    0.4009 H         1 UNK         0.0000 
     18 H18         2.7870   -2.1364    0.8125 H         1 UNK         0.0000 
     19 C19         6.2033   -5.3624    0.9132 C.3       1 UNK         0.0000 
     20 C20         5.6104   -6.4006    1.8909 C.3       1 UNK         0.0000 
     21 C21         5.2151   -7.7599    1.2676 C.3       1 UNK         0.0000 
     22 C22         4.8840   -7.8098   -0.2439 C.3       1 UNK         0.0000 
     23 N23         3.5046   -7.3851   -0.6119 N.am      1 UNK         0.0000 
     24 C24         2.6679   -8.4387   -0.8560 C.2       1 UNK         0.0000 
     25 O25         1.7226   -8.7010   -0.1196 O.2       1 UNK         0.0000 
     26 C26         3.0741   -9.1979   -2.0992 C.ar      1 UNK         0.0000 
     27 C27         3.5031   -8.3647   -3.1393 C.ar      1 UNK         0.0000 
     28 O28         2.7084   -7.4122   -3.4519 O.co2     1 UNK         0.0000 
     29 C29         4.8936   -8.3831   -3.3738 C.ar      1 UNK         0.0000 
     30 O30         5.5740   -7.3031   -3.4923 O.co2     1 UNK         0.0000 
     31 C31         5.5693   -9.5930   -3.1900 C.ar      1 UNK         0.0000 
     32 C32         4.9186  -10.6687   -2.5640 C.ar      1 UNK         0.0000 
     33 C33         3.6841  -10.4476   -1.9437 C.ar      1 UNK         0.0000 
     34 H34         5.3147   -0.7175   -2.9120 H         1 UNK         0.0000 
     35 H35         4.5078   -0.7086   -5.2312 H         1 UNK         0.0000 
     36 H36         3.7809   -2.8677   -6.1896 H         1 UNK         0.0000 
     37 H37         6.4580   -4.8541   -1.4227 H         1 UNK         0.0000 
     38 H38         5.1386   -2.5460    0.9585 H         1 UNK         0.0000 
     39 H39         4.2719   -3.6997    1.9661 H         1 UNK         0.0000 
     40 H40         6.9255   -5.8636    0.2631 H         1 UNK         0.0000 
     41 H41         6.8094   -4.6272    1.4502 H         1 UNK         0.0000 
     42 H42         4.7535   -5.9807    2.4175 H         1 UNK         0.0000 
     43 H43         6.3445   -6.5934    2.6725 H         1 UNK         0.0000 
     44 H44         6.0444   -8.4523    1.4274 H         1 UNK         0.0000 
     45 H45         4.3924   -8.2017    1.8353 H         1 UNK         0.0000 
     46 H46         5.1273   -8.8277   -0.5626 H         1 UNK         0.0000 
     47 H47         5.6017   -7.2274   -0.8170 H         1 UNK         0.0000 
     48 H48         3.0467   -6.8716    0.1251 H         1 UNK         0.0000 
     49 H49         6.6138   -9.6738   -3.4556 H         1 UNK         0.0000 
     50 H50         5.4374  -11.5996   -2.4153 H         1 UNK         0.0000 
     51 H51         3.3122  -11.1474   -1.2059 H         1 UNK         0.0000 
     52 Fe52        3.9406   -6.0121   -2.8224 Fe        1 UNK         0.0000 
@<TRIPOS>BOND
     1    1    2 ar   
     2    1    8 ar   
     3    1   34 1    
     4    2    3 ar   
     5    2   35 1    
     6    3    4 ar   
     7    3   36 1    
     8    4    5 1    
     9    4    6 ar   
    10    5   52 nc   
    11    6    7 1    
    12    6    8 ar   
    13    7   52 nc   
    14    8    9 1    
    15    9   10 2    
    16    9   11 am   BACKBONE|DICT|INTERRES
    17   11   37 1    
    18   11   12 1    
    19   11   52 nc   
    20   12   14 1    
    21   12   19 1    
    22   12   13 1    
    23   14   15 1    
    24   14   38 1    
    25   14   39 1    
    26   15   16 1    
    27   15   17 1    
    28   15   18 1    
    29   19   20 1    
    30   19   40 1    
    31   19   41 1    
    32   20   21 1    
    33   20   42 1    
    34   20   43 1    
    35   21   22 1    
    36   21   44 1    
    37   21   45 1    
    38   22   23 1    
    39   22   46 1    
    40   22   47 1    
    41   23   24 am   BACKBONE|DICT|INTERRES
    42   23   48 1    
    43   23   52 nc   
    44   24   25 2    
    45   24   26 1    
    46   26   27 ar   
    47   26   33 ar   
    48   27   28 1    
    49   27   29 ar   
    50   28   52 nc   
    51   29   30 1    
    52   29   31 ar   
    53   30   52 nc   
    54   31   32 ar   
    55   31   49 1    
    56   32   33 ar   
    57   32   50 1    
    58   33   51 1    
@<TRIPOS>SUBSTRUCTURE
     1 UNK         1 GROUP             0       ****    0 ROOT    
@<TRIPOS>MOLECULE
185_J1_c1
97   104    1
SMALL
USER_CHARGES


@<TRIPOS>ATOM
      1 C1          2.8676   -0.4086   -0.5481 C.ar      1 UNK         0.0000 
      2 C2          2.8782    0.6443    0.3598 C.ar      1 UNK         0.0000 
      3 C3          4.0925    1.1958    0.7596 C.ar      1 UNK         0.0000 
      4 C4          5.2839    0.7603    0.1693 C.ar      1 UNK         0.0000 
      5 O5          6.3819    1.0533    0.7264 O.co2     1 UNK         0.0000 
      6 C6          5.2633   -0.1546   -0.9009 C.ar      1 UNK         0.0000 
      7 O7          6.3582   -0.4701   -1.5027 O.co2     1 UNK         0.0000 
      8 C8          4.0620   -0.8664   -1.1251 C.ar      1 UNK         0.0000 
      9 C9          4.1097   -2.2813   -1.6618 C.2       1 UNK         0.0000 
     10 O10         3.6896   -2.5941   -2.7795 O.2       1 UNK         0.0000 
     11 N11         4.5944   -3.2211   -0.8144 N.am      1 UNK         0.0000 
     12 C12         4.5346   -3.2525    0.6648 C.3       1 UNK         0.0000 
     13 H13         3.6729   -2.6396    0.9425 H         1 UNK         0.0000 
     14 C14         5.7430   -2.5717    1.4399 C.3       1 UNK         0.0000 
     15 O15         6.9511   -2.2411    0.7883 O.co2     1 UNK         0.0000 
     16 C16         4.0881   -4.6758    1.1656 C.3       1 UNK         0.0000 
     17 C17         5.1926   -5.7641    1.1942 C.3       1 UNK         0.0000 
     18 C18         4.7347   -7.2203    1.4206 C.3       1 UNK         0.0000 
     19 C19         5.9817   -8.1087    1.6185 C.3       1 UNK         0.0000 
     20 N20         5.7652   -9.5572    1.7439 N.am      1 UNK         0.0000 
     21 C21         6.7930  -10.4059    1.9503 C.2       1 UNK         0.0000 
     22 O22         7.9440   -9.9901    2.0797 O.2       1 UNK         0.0000 
     23 C23         6.5348  -11.9051    2.0338 C.ar      1 UNK         0.0000 
     24 C24         7.6325  -12.7604    2.2210 C.ar      1 UNK         0.0000 
     25 C25         7.4645  -14.1363    2.3185 C.ar      1 UNK         0.0000 
     26 C26         6.1895  -14.6803    2.2270 C.ar      1 UNK         0.0000 
     27 C27         5.0838  -13.8558    2.0359 C.ar      1 UNK         0.0000 
     28 C28         5.2490  -12.4705    1.9375 C.ar      1 UNK         0.0000 
     29 H29         1.9553   -0.9578   -0.7140 H         1 UNK         0.0000 
     30 H30         1.9729    0.9364    0.8642 H         1 UNK         0.0000 
     31 H31         4.1397    1.8812    1.5917 H         1 UNK         0.0000 
     32 H32         5.0578   -3.9727   -1.2716 H         1 UNK         0.0000 
     33 H33         5.3170   -1.6572    1.8502 H         1 UNK         0.0000 
     34 H34         5.9087   -3.1428    2.3458 H         1 UNK         0.0000 
     35 H35         3.2637   -5.0191    0.5445 H         1 UNK         0.0000 
     36 H36         3.6553   -4.5765    2.1622 H         1 UNK         0.0000 
     37 H37         5.8969   -5.5078    1.9876 H         1 UNK         0.0000 
     38 H38         5.7786   -5.7018    0.2737 H         1 UNK         0.0000 
     39 H39         4.1451   -7.5567    0.5632 H         1 UNK         0.0000 
     40 H40         4.0840   -7.2750    2.2980 H         1 UNK         0.0000 
     41 H41         6.5319   -7.7427    2.4932 H         1 UNK         0.0000 
     42 H42         6.6629   -7.9289    0.7793 H         1 UNK         0.0000 
     43 H43         4.8360   -9.9189    1.6353 H         1 UNK         0.0000 
     44 H44         8.6364  -12.3614    2.2961 H         1 UNK         0.0000 
     45 H45         8.3226  -14.7745    2.4662 H         1 UNK         0.0000 
     46 H46         6.0632  -15.7511    2.3061 H         1 UNK         0.0000 
     47 H47         4.0995  -14.2973    1.9668 H         1 UNK         0.0000 
     48 H48         4.3724  -11.8576    1.7904 H         1 UNK         0.0000 
     49 C49        14.5383  -12.4745   -4.1408 C.ar      1 UNK         0.0000 
     50 H50        14.0573  -13.4163   -4.3579 H         1 UNK         0.0000 
     51 C51        13.7664  -11.3452   -3.8990 C.ar      1 UNK         0.0000 
     52 H52        12.6890  -11.4452   -3.9346 H         1 UNK         0.0000 
     53 C53        15.9237  -12.3800   -4.1012 C.ar      1 UNK         0.0000 
     54 O54        12.2298   -9.0611   -3.4538 O.2       1 UNK         0.0000 
     55 O55         9.4301   -1.6729   -1.2815 O.co2     1 UNK         0.0000 
     56 C56        14.3607  -10.1045   -3.6170 C.ar      1 UNK         0.0000 
     57 H57        16.5207  -13.2607   -4.2921 H         1 UNK         0.0000 
     58 C58        13.4488   -8.9092   -3.3739 C.2       1 UNK         0.0000 
     59 C59        16.5396  -11.1631   -3.8177 C.ar      1 UNK         0.0000 
     60 H60        12.4030   -6.4047   -3.6099 H         1 UNK         0.0000 
     61 C61        15.7654  -10.0239   -3.5743 C.ar      1 UNK         0.0000 
     62 N62        13.9792   -7.7041   -3.0744 N.am      1 UNK         0.0000 
     63 C63        13.1030   -6.5483   -2.7789 C.3       1 UNK         0.0000 
     64 C64        10.6488   -1.5250   -1.9896 C.3       1 UNK         0.0000 
     65 H65        11.8788   -4.1770   -2.8547 H         1 UNK         0.0000 
     66 H66        17.6188  -11.1088   -3.7896 H         1 UNK         0.0000 
     67 H67        14.3132   -4.8208   -3.3337 H         1 UNK         0.0000 
     68 H68        10.6764   -2.1178   -2.8955 H         1 UNK         0.0000 
     69 H69        16.2719   -9.0949   -3.3577 H         1 UNK         0.0000 
     70 C70        13.7521   -5.1760   -2.4645 C.3       1 UNK         0.0000 
     71 H71        14.9749   -7.6047   -3.0014 H         1 UNK         0.0000 
     72 C72        12.6541   -4.1444   -2.0873 C.3       1 UNK         0.0000 
     73 H73        10.6672   -0.5251   -2.4167 H         1 UNK         0.0000 
     74 H74        13.3933   -2.2718   -2.9013 H         1 UNK         0.0000 
     75 H75        12.4576   -6.8107   -1.9336 H         1 UNK         0.0000 
     76 C76        13.1016   -2.6635   -1.9265 C.3       1 UNK         0.0000 
     77 C77        12.0627   -1.6663   -1.2793 C.3       1 UNK         0.0000 
     78 H78        12.1491   -4.4612   -1.1713 H         1 UNK         0.0000 
     79 H79        12.7422    3.2167   -1.0372 H         1 UNK         0.0000 
     80 H80        14.4676   -5.2651   -1.6420 H         1 UNK         0.0000 
     81 H81        12.5398   -0.7052   -1.4814 H         1 UNK         0.0000 
     82 C82        12.0411    2.5405   -0.5790 C.ar      1 UNK         0.0000 
     83 H83        13.5486    1.3307    0.3331 H         1 UNK         0.0000 
     84 C84        12.4898    1.4887    0.2128 C.ar      1 UNK         0.0000 
     85 N85        12.0496   -1.7943    0.1939 N.am      1 UNK         0.0000 
     86 C86        10.6975    2.6079   -0.9340 C.ar      1 UNK         0.0000 
     87 H87        14.0140   -2.6310   -1.3361 H         1 UNK         0.0000 
     88 H88        10.3560    3.3029   -1.6867 H         1 UNK         0.0000 
     89 C89        11.5897    0.5440    0.7297 C.ar      1 UNK         0.0000 
     90 C90        12.1179   -0.8190    1.1309 C.2       1 UNK         0.0000 
     91 H91        11.9630   -2.7069    0.5772 H         1 UNK         0.0000 
     92 C92         9.7924    1.6835   -0.4056 C.ar      1 UNK         0.0000 
     93 C93        10.2003    0.7520    0.5679 C.ar      1 UNK         0.0000 
     94 O94         8.6532    1.5783   -0.9423 O.co2     1 UNK         0.0000 
     95 O95        12.6438   -1.0397    2.2255 O.2       1 UNK         0.0000 
     96 O96         9.3289   -0.0020    1.1450 O.co2     1 UNK         0.0000 
     97 Fe97        7.8445   -0.2608   -0.1765 Fe        1 UNK         0.0000 
@<TRIPOS>BOND
     1    1    2 ar   
     2    1    8 ar   
     3    1   29 1    
     4    2    3 ar   
     5    2   30 1    
     6    3    4 ar   
     7    3   31 1    
     8    4    5 1    
     9    4    6 ar   
    10    5   97 nc   
    11    6    7 1    
    12    6    8 ar   
    13    7   97 nc   
    14    8    9 1    
    15    9   10 2    
    16    9   11 am   BACKBONE|DICT|INTERRES
    17   11   32 1    
    18   11   12 1    
    19   12   14 1    
    20   12   16 1    
    21   12   13 1    
    22   14   15 1    
    23   14   33 1    
    24   14   34 1    
    25   15   97 nc   
    26   16   17 1    
    27   16   35 1    
    28   16   36 1    
    29   17   18 1    
    30   17   37 1    
    31   17   38 1    
    32   18   19 1    
    33   18   39 1    
    34   18   40 1    
    35   19   20 1    
    36   19   41 1    
    37   19   42 1    
    38   20   21 am   BACKBONE|DICT|INTERRES
    39   20   43 1    
    40   21   22 2    
    41   21   23 1    
    42   23   24 ar   
    43   23   28 ar   
    44   24   25 ar   
    45   24   44 1    
    46   25   26 ar   
    47   25   45 1    
    48   26   27 ar   
    49   26   46 1    
    50   27   28 ar   
    51   27   47 1    
    52   28   48 1    
    53   49   53 ar   
    54   49   50 1    
    55   49   51 ar   
    56   51   52 1    
    57   51   56 ar   
    58   53   59 ar   
    59   53   57 1    
    60   54   58 2    
    61   55   64 1    
    62   55   97 nc   
    63   56   61 ar   
    64   56   58 1    
    65   58   62 am   BACKBONE|DICT|INTERRES
    66   59   61 ar   
    67   59   66 1    
    68   60   63 1    
    69   61   69 1    
    70   62   71 1    
    71   62   63 1    
    72   63   75 1    
    73   63   70 1    
    74   64   73 1    
    75   64   68 1    
    76   64   77 1    
    77   65   72 1    
    78   67   70 1    
    79   70   80 1    
    80   70   72 1    
    81   72   78 1    
    82   72   76 1    
    83   74   76 1    
    84   76   87 1    
    85   76   77 1    
    86   77   81 1    
    87   77   85 1    
    88   79   82 1    
    89   82   86 ar   
    90   82   84 ar   
    91   83   84 1    
    92   84   89 ar   
    93   85   91 1    
    94   85   90 am   BACKBONE|DICT|INTERRES
    95   86   92 ar   
    96   86   88 1    
    97   89   90 1    
    98   89   93 ar   
    99   90   95 2    
   100   92   94 1    
   101   92   93 ar   
   102   93   96 1    
   103   94   97 nc   
   104   96   97 nc   
@<TRIPOS>SUBSTRUCTURE
     1 UNK         1 GROUP             0       ****    0 ROOT    
@<TRIPOS>MOLECULE
185_J2_c1
97   104    1
SMALL
USER_CHARGES


@<TRIPOS>ATOM
      1 C1         -9.8569   -3.2983    1.2799 C.ar      1 UNK         0.0000 
      2 C2         -8.5093   -3.5784    1.5054 C.ar      1 UNK         0.0000 
      3 C3         -7.9303   -4.7101    0.9360 C.ar      1 UNK         0.0000 
      4 C4         -8.6881   -5.5593    0.1367 C.ar      1 UNK         0.0000 
      5 C5        -10.0247   -5.2612   -0.1120 C.ar      1 UNK         0.0000 
      6 C6        -10.6269   -4.1171    0.4426 C.ar      1 UNK         0.0000 
      7 C7        -12.0937   -3.8679    0.1445 C.2       1 UNK         0.0000 
      8 O8        -12.8134   -4.8182   -0.1654 O.2       1 UNK         0.0000 
      9 N9        -12.6568   -2.6522    0.1431 N.am      1 UNK         0.0000 
     10 C10       -12.2383   -1.2687    0.3971 C.3       1 UNK         0.0000 
     11 H11       -11.9237   -1.2383    1.4376 H         1 UNK         0.0000 
     12 C12       -13.5734   -0.4700    0.4527 C.3       1 UNK         0.0000 
     13 O13       -13.5087    0.8821    0.8107 O.co2     1 UNK         0.0000 
     14 C14       -11.0045   -0.7715   -0.4759 C.3       1 UNK         0.0000 
     15 C15       -10.9800    0.4963   -1.4144 C.3       1 UNK         0.0000 
     16 C16       -10.9950    1.8546   -0.6646 C.3       1 UNK         0.0000 
     17 C17       -10.3252    3.1617   -1.1735 C.3       1 UNK         0.0000 
     18 N18       -10.6626    4.2139   -0.2035 N.am      1 UNK         0.0000 
     19 C19        -9.8643    4.8981    0.6479 C.2       1 UNK         0.0000 
     20 O20        -8.7445    5.3107    0.3338 O.2       1 UNK         0.0000 
     21 C21       -10.4713    5.0914    2.0589 C.ar      1 UNK         0.0000 
     22 C22       -11.2927    4.0980    2.6521 C.ar      1 UNK         0.0000 
     23 O23       -11.5244    3.0402    2.0057 O.co2     1 UNK         0.0000 
     24 C24       -11.8622    4.2735    3.9345 C.ar      1 UNK         0.0000 
     25 O25       -12.6238    3.4150    4.4908 O.co2     1 UNK         0.0000 
     26 C26       -11.6125    5.4535    4.6334 C.ar      1 UNK         0.0000 
     27 C27       -10.7931    6.4365    4.0796 C.ar      1 UNK         0.0000 
     28 C28       -10.2245    6.2578    2.8143 C.ar      1 UNK         0.0000 
     29 H29       -10.2731   -2.4360    1.7797 H         1 UNK         0.0000 
     30 H30        -7.9277   -2.9197    2.1343 H         1 UNK         0.0000 
     31 H31        -6.8919   -4.9372    1.1251 H         1 UNK         0.0000 
     32 H32        -8.2477   -6.4492   -0.2901 H         1 UNK         0.0000 
     33 H33       -10.6011   -5.9318   -0.7368 H         1 UNK         0.0000 
     34 H34       -13.6587   -2.6826    0.0496 H         1 UNK         0.0000 
     35 H35       -14.1365   -0.6554   -0.4657 H         1 UNK         0.0000 
     36 H36       -14.1966   -0.9699    1.1989 H         1 UNK         0.0000 
     37 H37       -10.6700   -1.6113   -1.0754 H         1 UNK         0.0000 
     38 H38       -10.1961   -0.6219    0.2373 H         1 UNK         0.0000 
     39 H39       -10.0730    0.4449   -2.0104 H         1 UNK         0.0000 
     40 H40       -11.8158    0.4458   -2.1121 H         1 UNK         0.0000 
     41 H41       -10.5850    1.6430    0.3198 H         1 UNK         0.0000 
     42 H42       -12.0369    2.1355   -0.5398 H         1 UNK         0.0000 
     43 H43       -10.7182    3.4031   -2.1661 H         1 UNK         0.0000 
     44 H44        -9.2480    3.0247   -1.3003 H         1 UNK         0.0000 
     45 H45       -11.3952    3.8854    0.4428 H         1 UNK         0.0000 
     46 H46       -12.0684    5.5929    5.6082 H         1 UNK         0.0000 
     47 H47       -10.6076    7.3343    4.6478 H         1 UNK         0.0000 
     48 H48        -9.5759    7.0145    2.3901 H         1 UNK         0.0000 
     49 H49        -8.2621   -5.1310    3.9056 H         1 UNK         0.0000 
     50 C50        -8.0950   -4.7253    4.8936 C.ar      1 UNK         0.0000 
     51 H51        -7.1282   -6.4808    5.6361 H         1 UNK         0.0000 
     52 H52        -8.9561   -2.9151    4.3675 H         1 UNK         0.0000 
     53 H53       -10.0917    0.9690    4.2574 H         1 UNK         0.0000 
     54 C54        -7.4606   -5.4817    5.8693 C.ar      1 UNK         0.0000 
     55 C55        -8.5089   -3.4299    5.1903 C.ar      1 UNK         0.0000 
     56 H56       -12.0748   -2.3048    4.2714 H         1 UNK         0.0000 
     57 H57        -9.9119   -1.2698    4.2280 H         1 UNK         0.0000 
     58 O58       -11.8727    0.2502    3.4589 O.co2     1 UNK         0.0000 
     59 C59       -10.9806    0.3799    4.5193 C.3       1 UNK         0.0000 
     60 C60       -10.5362   -0.9871    5.0678 C.3       1 UNK         0.0000 
     61 C61       -11.6562   -2.0881    5.2555 C.3       1 UNK         0.0000 
     62 H62       -13.5501    0.0782    5.8041 H         1 UNK         0.0000 
     63 C63        -7.2407   -4.9530    7.1359 C.ar      1 UNK         0.0000 
     64 H64       -11.1587   -3.0147    5.5226 H         1 UNK         0.0000 
     65 C65        -8.3352   -2.8761    6.4709 C.ar      1 UNK         0.0000 
     66 H66       -11.4077    0.9594    5.3442 H         1 UNK         0.0000 
     67 C67       -13.9560   -0.9309    5.7533 C.3       1 UNK         0.0000 
     68 C68       -12.8499   -1.8970    6.2563 C.3       1 UNK         0.0000 
     69 H69       -12.4792   -1.5737    7.2273 H         1 UNK         0.0000 
     70 C70        -7.6789   -3.6646    7.4325 C.ar      1 UNK         0.0000 
     71 H71        -6.7288   -5.5317    7.8906 H         1 UNK         0.0000 
     72 N72        -9.6991   -0.7594    6.2365 N.am      1 UNK         0.0000 
     73 H73       -14.1153   -1.1196    4.6892 H         1 UNK         0.0000 
     74 C74        -8.7621   -1.4709    6.8773 C.2       1 UNK         0.0000 
     75 H75       -15.4224    0.8963    5.3853 H         1 UNK         0.0000 
     76 O76       -14.7310    3.4814    2.1201 O.co2     1 UNK         0.0000 
     77 N77       -16.0535    0.2855    5.9284 N.am      1 UNK         0.0000 
     78 C78       -15.3514   -0.8891    6.4384 C.3       1 UNK         0.0000 
     79 H79       -15.2166   -0.8080    7.5205 H         1 UNK         0.0000 
     80 O80       -14.8270    1.2216    3.7787 O.co2     1 UNK         0.0000 
     81 H81        -9.8118    0.1830    6.5812 H         1 UNK         0.0000 
     82 C82       -15.7907    3.0535    2.6882 C.ar      1 UNK         0.0000 
     83 H83       -13.3068   -2.8742    6.4058 H         1 UNK         0.0000 
     84 C84       -15.8584    1.9271    3.5480 C.ar      1 UNK         0.0000 
     85 H85        -7.4984   -3.2685    8.4227 H         1 UNK         0.0000 
     86 C86       -16.9488    3.7810    2.4267 C.ar      1 UNK         0.0000 
     87 O87        -8.2472   -0.9541    7.8703 O.2       1 UNK         0.0000 
     88 C88       -17.0892    1.5519    4.1636 C.ar      1 UNK         0.0000 
     89 C89       -17.1626    0.3845    5.1720 C.2       1 UNK         0.0000 
     90 H90       -16.8805    4.6519    1.7833 H         1 UNK         0.0000 
     91 C91       -18.1671    3.3991    2.9821 C.ar      1 UNK         0.0000 
     92 C92       -18.2400    2.2972    3.8346 C.ar      1 UNK         0.0000 
     93 H93       -15.8966   -1.8229    6.2738 H         1 UNK         0.0000 
     94 H94       -19.0409    3.9844    2.7465 H         1 UNK         0.0000 
     95 O95       -18.1304   -0.3770    5.2775 O.2       1 UNK         0.0000 
     96 H96       -19.1875    2.0049    4.2721 H         1 UNK         0.0000 
     97 Fe97      -13.1869    2.0446    2.7842 Fe        1 UNK         0.0000 
@<TRIPOS>BOND
     1    1    2 ar   
     2    1    6 ar   
     3    1   29 1    
     4    2    3 ar   
     5    2   30 1    
     6    3    4 ar   
     7    3   31 1    
     8    4    5 ar   
     9    4   32 1    
    10    5    6 ar   
    11    5   33 1    
    12    6    7 1    
    13    7    8 2    
    14    7    9 am   BACKBONE|DICT|INTERRES
    15    9   34 1    
    16    9   10 1    
    17   10   12 1    
    18   10   14 1    
    19   10   11 1    
    20   12   13 1    
    21   12   35 1    
    22   12   36 1    
    23   13   97 nc   
    24   14   15 1    
    25   14   37 1    
    26   14   38 1    
    27   15   16 1    
    28   15   39 1    
    29   15   40 1    
    30   16   17 1    
    31   16   41 1    
    32   16   42 1    
    33   17   18 1    
    34   17   43 1    
    35   17   44 1    
    36   18   19 am   BACKBONE|DICT|INTERRES
    37   18   45 1    
    38   19   20 2    
    39   19   21 1    
    40   21   22 ar   
    41   21   28 ar   
    42   22   23 1    
    43   22   24 ar   
    44   23   97 nc   
    45   24   25 1    
    46   24   26 ar   
    47   25   97 nc   
    48   26   27 ar   
    49   26   46 1    
    50   27   28 ar   
    51   27   47 1    
    52   28   48 1    
    53   49   50 1    
    54   50   54 ar   
    55   50   55 ar   
    56   51   54 1    
    57   52   55 1    
    58   53   59 1    
    59   54   63 ar   
    60   55   65 ar   
    61   56   61 1    
    62   57   60 1    
    63   58   59 1    
    64   58   97 nc   
    65   59   66 1    
    66   59   60 1    
    67   60   61 1    
    68   60   72 1    
    69   61   68 1    
    70   61   64 1    
    71   62   67 1    
    72   63   70 ar   
    73   63   71 1    
    74   65   74 1    
    75   65   70 ar   
    76   67   78 1    
    77   67   73 1    
    78   67   68 1    
    79   68   83 1    
    80   68   69 1    
    81   70   85 1    
    82   72   81 1    
    83   72   74 am   BACKBONE|DICT|INTERRES
    84   74   87 2    
    85   75   77 1    
    86   76   82 1    
    87   76   97 nc   
    88   77   89 am   BACKBONE|DICT|INTERRES
    89   77   78 1    
    90   78   79 1    
    91   78   93 1    
    92   80   84 1    
    93   80   97 nc   
    94   82   86 ar   
    95   82   84 ar   
    96   84   88 ar   
    97   86   91 ar   
    98   86   90 1    
    99   88   92 ar   
   100   88   89 1    
   101   89   95 2    
   102   91   92 ar   
   103   91   94 1    
   104   92   96 1    
@<TRIPOS>SUBSTRUCTURE
     1 UNK         1 GROUP             0       ****    0 ROOT    
@<TRIPOS>MOLECULE
185_J3_c1
49   55    1
SMALL
USER_CHARGES


@<TRIPOS>ATOM
      1 C1          4.5976   -2.4010   -0.7638 C.ar      1 UNK         0.0000 
      2 C2          5.2382   -2.8792   -1.9146 C.ar      1 UNK         0.0000 
      3 C3          5.8638   -4.1331   -1.8629 C.ar      1 UNK         0.0000 
      4 C4          6.0575   -4.7238   -0.6106 C.ar      1 UNK         0.0000 
      5 O5          6.0390   -5.9815   -0.4635 O.co2     1 UNK         0.0000 
      6 C6          5.8839   -3.9528    0.5379 C.ar      1 UNK         0.0000 
      7 O7          6.2703   -4.3584    1.6908 O.co2     1 UNK         0.0000 
      8 C8          4.7703   -3.1215    0.4254 C.ar      1 UNK         0.0000 
      9 C9          3.5662   -3.5343    1.2272 C.2       1 UNK         0.0000 
     10 O10         2.7194   -2.7268    1.6111 O.2       1 UNK         0.0000 
     11 N11         3.4965   -4.9133    1.4311 N.am      1 UNK         0.0000 
     12 C12         2.6829   -5.4350    2.5676 C.3       1 UNK         0.0000 
     13 H13         1.8854   -4.7169    2.7982 H         1 UNK         0.0000 
     14 C14         3.6202   -5.5208    3.8136 C.3       1 UNK         0.0000 
     15 O15         4.7748   -6.2756    3.5657 O.co2     1 UNK         0.0000 
     16 C16         1.9739   -6.8261    2.3353 C.3       1 UNK         0.0000 
     17 C17         1.4374   -7.1931    0.9299 C.3       1 UNK         0.0000 
     18 C18         1.2536   -8.7281    0.7594 C.3       1 UNK         0.0000 
     19 C19         2.4305   -9.5237    0.1262 C.3       1 UNK         0.0000 
     20 N20         3.6118   -9.7944    0.9603 N.am      1 UNK         0.0000 
     21 C21         4.5792   -8.9140    1.2873 C.2       1 UNK         0.0000 
     22 O22         4.4399   -7.7109    1.0370 O.co2     1 UNK         0.0000 
     23 C23         5.8431   -9.4158    1.9774 C.ar      1 UNK         0.0000 
     24 C24         6.9537   -8.5668    2.2515 C.ar      1 UNK         0.0000 
     25 O25         7.0201   -7.3242    1.9567 O.co2     1 UNK         0.0000 
     26 C26         8.0877   -9.0789    2.8878 C.ar      1 UNK         0.0000 
     27 C27         8.1491  -10.4164    3.2786 C.ar      1 UNK         0.0000 
     28 C28         7.0760  -11.2594    3.0192 C.ar      1 UNK         0.0000 
     29 C29         5.9414  -10.7710    2.3701 C.ar      1 UNK         0.0000 
     30 H30         3.8549   -1.6183   -0.8474 H         1 UNK         0.0000 
     31 H31         5.0809   -2.3973   -2.8639 H         1 UNK         0.0000 
     32 H32         6.1008   -4.6705   -2.7723 H         1 UNK         0.0000 
     33 H33         3.3165   -5.3418    0.5249 H         1 UNK         0.0000 
     34 H34         3.8760   -4.5008    4.1040 H         1 UNK         0.0000 
     35 H35         3.0525   -5.8981    4.6716 H         1 UNK         0.0000 
     36 H36         1.1299   -6.8784    3.0323 H         1 UNK         0.0000 
     37 H37         2.5849   -7.6716    2.6664 H         1 UNK         0.0000 
     38 H38         2.0672   -6.8226    0.1212 H         1 UNK         0.0000 
     39 H39         0.4737   -6.6934    0.7966 H         1 UNK         0.0000 
     40 H40         0.3981   -8.8751    0.0948 H         1 UNK         0.0000 
     41 H41         0.9500   -9.1906    1.7017 H         1 UNK         0.0000 
     42 H42         2.7545   -9.0134   -0.7822 H         1 UNK         0.0000 
     43 H43         2.0480  -10.4833   -0.2187 H         1 UNK         0.0000 
     44 H44         3.7700  -10.7549    1.2167 H         1 UNK         0.0000 
     45 H45         8.9258   -8.4226    3.0893 H         1 UNK         0.0000 
     46 H46         9.0219  -10.7866    3.7942 H         1 UNK         0.0000 
     47 H47         7.1171  -12.2881    3.3395 H         1 UNK         0.0000 
     48 H48         5.1350  -11.4739    2.2061 H         1 UNK         0.0000 
     49 Fe49        5.4720   -6.0819    1.5740 Fe        1 UNK         0.0000 
@<TRIPOS>BOND
     1    1    2 ar   
     2    1    8 ar   
     3    1   30 1    
     4    2    3 ar   
     5    2   31 1    
     6    3    4 ar   
     7    3   32 1    
     8    4    5 1    
     9    4    6 ar   
    10    5   49 nc   
    11    6    7 1    
    12    6    8 ar   
    13    7   49 nc   
    14    8    9 1    
    15    9   10 2    
    16    9   11 am   BACKBONE|DICT|INTERRES
    17   11   33 1    
    18   11   12 1    
    19   11   49 nc   
    20   12   14 1    
    21   12   16 1    
    22   12   13 1    
    23   14   15 1    
    24   14   34 1    
    25   14   35 1    
    26   15   49 nc   
    27   16   17 1    
    28   16   36 1    
    29   16   37 1    
    30   17   18 1    
    31   17   38 1    
    32   17   39 1    
    33   18   19 1    
    34   18   40 1    
    35   18   41 1    
    36   19   20 1    
    37   19   42 1    
    38   19   43 1    
    39   20   21 am   BACKBONE|DICT|INTERRES
    40   20   44 1    
    41   21   22 2    
    42   21   23 1    
    43   22   49 nc   
    44   23   24 ar   
    45   23   29 ar   
    46   24   25 1    
    47   24   26 ar   
    48   25   49 nc   
    49   26   27 ar   
    50   26   45 1    
    51   27   28 ar   
    52   27   46 1    
    53   28   29 ar   
    54   28   47 1    
    55   29   48 1    
@<TRIPOS>SUBSTRUCTURE
     1 UNK         1 GROUP             0       ****    0 ROOT    
@<TRIPOS>MOLECULE
185_J4_c1
99   106    1
SMALL
USER_CHARGES


@<TRIPOS>ATOM
      1 C1         -5.8471    2.9761    3.3079 C.ar      1 UNK         0.0000 
      2 C2         -4.9453    1.9622    3.6211 C.ar      1 UNK         0.0000 
      3 C3         -4.9733    0.7608    2.9125 C.ar      1 UNK         0.0000 
      4 C4         -5.9043    0.5810    1.8951 C.ar      1 UNK         0.0000 
      5 C5         -6.8090    1.5854    1.5743 C.ar      1 UNK         0.0000 
      6 O6         -7.6766    1.2948    0.5498 O.3       1 UNK         0.0000 
      7 C7         -6.7936    2.8150    2.2792 C.ar      1 UNK         0.0000 
      8 C8         -7.7400    3.9476    1.9165 C.2       1 UNK         0.0000 
      9 O9         -8.5700    3.8058    1.0274 O.2       1 UNK         0.0000 
     10 N10        -7.5873    5.1154    2.5759 N.am      1 UNK         0.0000 
     11 C11        -8.0867    6.4479    2.1831 C.3       1 UNK         0.0000 
     12 H12        -7.6573    7.1129    2.9331 H         1 UNK         0.0000 
     13 C13        -9.6359    6.6303    2.4852 C.3       1 UNK         0.0000 
     14 O14       -10.4233    7.7521    2.1367 O.co2     1 UNK         0.0000 
     15 C15        -7.3392    6.8972    0.8622 C.3       1 UNK         0.0000 
     16 C16        -7.8498    6.5652   -0.5668 C.3       1 UNK         0.0000 
     17 C17        -9.0125    7.4820   -0.9344 C.3       1 UNK         0.0000 
     18 C18        -9.4893    7.5759   -2.3894 C.3       1 UNK         0.0000 
     19 N19       -10.6293    8.4856   -2.3709 N.am      1 UNK         0.0000 
     20 C20       -11.9022    8.0938   -2.2907 C.2       1 UNK         0.0000 
     21 O21       -12.3960    7.2792   -3.0837 O.2       1 UNK         0.0000 
     22 C22       -12.6986    8.7009   -1.1316 C.ar      1 UNK         0.0000 
     23 C23       -12.1002    9.3878   -0.0267 C.ar      1 UNK         0.0000 
     24 O24       -10.8468    9.6669    0.0151 O.co2     1 UNK         0.0000 
     25 C25       -12.8951    9.7167    1.0990 C.ar      1 UNK         0.0000 
     26 O26       -12.3725   10.1649    2.1742 O.co2     1 UNK         0.0000 
     27 C27       -14.2674    9.4778    1.0804 C.ar      1 UNK         0.0000 
     28 C28       -14.8624    8.8802   -0.0269 C.ar      1 UNK         0.0000 
     29 C29       -14.0826    8.4813   -1.1054 C.ar      1 UNK         0.0000 
     30 H30        -5.7882    3.8962    3.8747 H         1 UNK         0.0000 
     31 H31        -4.2233    2.1110    4.4105 H         1 UNK         0.0000 
     32 H32        -4.2770   -0.0270    3.1440 H         1 UNK         0.0000 
     33 H33        -5.9280   -0.3486    1.3430 H         1 UNK         0.0000 
     34 H34        -7.5535    0.4407    0.1368 H         1 UNK         0.0000 
     35 H35        -7.0917    5.1281    3.4453 H         1 UNK         0.0000 
     36 H36        -9.7428    6.4189    3.5517 H         1 UNK         0.0000 
     37 H37       -10.1124    5.7387    2.0790 H         1 UNK         0.0000 
     38 H38        -6.3257    6.5072    0.9245 H         1 UNK         0.0000 
     39 H39        -7.1441    7.9617    0.9024 H         1 UNK         0.0000 
     40 H40        -7.0369    6.7394   -1.2704 H         1 UNK         0.0000 
     41 H41        -8.1320    5.5215   -0.6736 H         1 UNK         0.0000 
     42 H42        -8.7526    8.4926   -0.6055 H         1 UNK         0.0000 
     43 H43        -9.8736    7.1812   -0.3394 H         1 UNK         0.0000 
     44 H44        -9.7205    6.5757   -2.7760 H         1 UNK         0.0000 
     45 H45        -8.6843    7.9593   -3.0253 H         1 UNK         0.0000 
     46 H46       -10.5880    9.1441   -1.5673 H         1 UNK         0.0000 
     47 H47       -14.8712    9.7208    1.9477 H         1 UNK         0.0000 
     48 H48       -15.9191    8.6815   -0.0375 H         1 UNK         0.0000 
     49 H49       -14.5377    7.9559   -1.9303 H         1 UNK         0.0000 
     50 H50        -6.3363   11.5691    6.3654 H         1 UNK         0.0000 
     51 O51        -9.9722   12.0616    1.7530 O.co2     1 UNK         0.0000 
     52 H52        -4.8403   10.7135    4.6008 H         1 UNK         0.0000 
     53 O53        -8.6210   12.0827    7.4852 O.2       1 UNK         0.0000 
     54 C54        -6.7558   11.0998    5.4890 C.ar      1 UNK         0.0000 
     55 H55       -11.7693   12.6310    0.8694 H         1 UNK         0.0000 
     56 C56        -5.9067   10.6442    4.4869 C.ar      1 UNK         0.0000 
     57 C57       -10.8529   13.0538    1.3043 C.3       1 UNK         0.0000 
     58 H58       -11.8548   13.4902    5.7800 H         1 UNK         0.0000 
     59 H59       -10.4358   13.5969    0.4531 H         1 UNK         0.0000 
     60 H60       -11.3239   15.8684    4.4130 H         1 UNK         0.0000 
     61 C61        -9.0077   11.8132    6.3412 C.2       1 UNK         0.0000 
     62 C62       -10.8681   13.5150    6.2493 C.3       1 UNK         0.0000 
     63 C63        -8.1518   11.0561    5.3316 C.ar      1 UNK         0.0000 
     64 H64       -14.3189   19.6062    3.3009 H         1 UNK         0.0000 
     65 C65       -14.1860   18.5378    3.3573 C.ar      1 UNK         0.0000 
     66 C66       -14.6681   17.8199    4.4468 C.ar      1 UNK         0.0000 
     67 H67       -15.1934   18.3458    5.2278 H         1 UNK         0.0000 
     68 C68       -10.3275   15.4501    4.5076 C.3       1 UNK         0.0000 
     69 N69       -10.1139   12.3486    5.8087 N.am      1 UNK         0.0000 
     70 C70        -6.4364   10.1693    3.2935 C.ar      1 UNK         0.0000 
     71 C71       -13.5474   17.8672    2.3237 C.ar      1 UNK         0.0000 
     72 C72       -14.4573   16.4427    4.5471 C.ar      1 UNK         0.0000 
     73 C73       -10.1441   14.8540    5.9310 C.3       1 UNK         0.0000 
     74 H74       -11.0756   13.4433    7.3182 H         1 UNK         0.0000 
     75 O75       -14.9398   15.8615    5.6945 O.3       1 UNK         0.0000 
     76 H76       -13.1808   18.4033    1.4610 H         1 UNK         0.0000 
     77 H77       -15.5862   16.4029    6.1482 H         1 UNK         0.0000 
     78 C78       -11.2237   14.0975    2.3998 C.3       1 UNK         0.0000 
     79 C79       -13.3985   16.4856    2.3845 C.ar      1 UNK         0.0000 
     80 H80        -9.0782   14.7302    6.1368 H         1 UNK         0.0000 
     81 C81       -13.7828   15.7397    3.5159 C.ar      1 UNK         0.0000 
     82 H82        -5.7945    9.8787    2.4759 H         1 UNK         0.0000 
     83 H83        -9.6493   16.3000    4.4241 H         1 UNK         0.0000 
     84 C84       -10.0142   14.5151    3.3153 C.3       1 UNK         0.0000 
     85 H85        -9.4760   13.6414    3.6922 H         1 UNK         0.0000 
     86 C86        -8.6867   10.4592    4.1559 C.ar      1 UNK         0.0000 
     87 C87       -13.5462   14.2318    3.5931 C.2       1 UNK         0.0000 
     88 N88       -12.4349   13.6340    3.1060 N.am      1 UNK         0.0000 
     89 H89       -12.9961   16.0229    1.5050 H         1 UNK         0.0000 
     90 H90       -10.3189   11.8642    4.9220 H         1 UNK         0.0000 
     91 C91        -7.8117   10.0927    3.1095 C.ar      1 UNK         0.0000 
     92 H92       -11.4229   14.9633    1.7916 H         1 UNK         0.0000 
     93 O93       -14.4036   13.5303    4.1235 O.2       1 UNK         0.0000 
     94 H94       -12.4613   12.6172    3.1332 H         1 UNK         0.0000 
     95 H95       -10.4819   15.6008    6.6464 H         1 UNK         0.0000 
     96 O96        -9.9500   10.3077    3.9905 O.co2     1 UNK         0.0000 
     97 H97        -9.2667   15.0152    2.6910 H         1 UNK         0.0000 
     98 O98        -8.2422    9.7685    1.9567 O.co2     1 UNK         0.0000 
     99 Fe99      -10.3009    9.9404    2.0016 Fe        1 UNK         0.0000 
@<TRIPOS>BOND
     1    1    2 ar   
     2    1    7 ar   
     3    1   30 1    
     4    2    3 ar   
     5    2   31 1    
     6    3    4 ar   
     7    3   32 1    
     8    4    5 ar   
     9    4   33 1    
    10    5    6 1    
    11    5    7 ar   
    12    6   34 1    
    13    7    8 1    
    14    8    9 2    
    15    8   10 am   BACKBONE|DICT|INTERRES
    16   10   35 1    
    17   10   11 1    
    18   11   13 1    
    19   11   15 1    
    20   11   12 1    
    21   13   14 1    
    22   13   36 1    
    23   13   37 1    
    24   14   99 nc   
    25   15   16 1    
    26   15   38 1    
    27   15   39 1    
    28   16   17 1    
    29   16   40 1    
    30   16   41 1    
    31   17   18 1    
    32   17   42 1    
    33   17   43 1    
    34   18   19 1    
    35   18   44 1    
    36   18   45 1    
    37   19   20 am   BACKBONE|DICT|INTERRES
    38   19   46 1    
    39   20   21 2    
    40   20   22 1    
    41   22   23 ar   
    42   22   29 ar   
    43   23   24 1    
    44   23   25 ar   
    45   24   99 nc   
    46   25   26 1    
    47   25   27 ar   
    48   26   99 nc   
    49   27   28 ar   
    50   27   47 1    
    51   28   29 ar   
    52   28   48 1    
    53   29   49 1    
    54   50   54 1    
    55   51   57 1    
    56   51   99 nc   
    57   52   56 1    
    58   53   61 2    
    59   54   56 ar   
    60   54   63 ar   
    61   55   57 1    
    62   56   70 ar   
    63   57   59 1    
    64   57   78 1    
    65   58   62 1    
    66   60   68 1    
    67   61   63 1    
    68   61   69 am   BACKBONE|DICT|INTERRES
    69   62   69 1    
    70   62   74 1    
    71   62   73 1    
    72   63   86 ar   
    73   64   65 1    
    74   65   66 ar   
    75   65   71 ar   
    76   66   72 ar   
    77   66   67 1    
    78   68   73 1    
    79   68   83 1    
    80   68   84 1    
    81   69   90 1    
    82   70   82 1    
    83   70   91 ar   
    84   71   76 1    
    85   71   79 ar   
    86   72   75 1    
    87   72   81 ar   
    88   73   95 1    
    89   73   80 1    
    90   75   77 1    
    91   78   84 1    
    92   78   92 1    
    93   78   88 1    
    94   79   81 ar   
    95   79   89 1    
    96   81   87 1    
    97   84   97 1    
    98   84   85 1    
    99   86   96 1    
   100   86   91 ar   
   101   87   93 2    
   102   87   88 am   BACKBONE|DICT|INTERRES
   103   88   94 1    
   104   91   98 1    
   105   96   99 nc   
   106   98   99 nc   
@<TRIPOS>SUBSTRUCTURE
     1 UNK         1 GROUP             0       ****    0 ROOT    
@<TRIPOS>MOLECULE
199_c1
135   142    1
SMALL
USER_CHARGES


@<TRIPOS>ATOM
      1 C1          1.7722   -3.5768   12.9314 C.3       1 UNK         0.0000 
      2 C2          1.5841   -3.5795   11.4044 C.3       1 UNK         0.0000 
      3 C3          0.4995   -4.5643   10.9101 C.3       1 UNK         0.0000 
      4 C4          0.7586   -6.0556   11.2136 C.3       1 UNK         0.0000 
      5 C5          2.0625   -6.6116   10.6089 C.3       1 UNK         0.0000 
      6 C6          2.2340   -8.1176   10.8710 C.3       1 UNK         0.0000 
      7 C7          3.4802   -8.7035   10.1716 C.3       1 UNK         0.0000 
      8 C8          3.6465  -10.2026   10.4368 C.2       1 UNK         0.0000 
      9 O9          2.8641  -11.0164    9.9818 O.2       1 UNK         0.0000 
     10 N10         4.6508  -10.6980   11.1523 N.am      1 UNK         0.0000 
     11 C11         5.7745  -10.0677   11.8490 C.3       1 UNK         0.0000 
     12 H12         6.4175  -10.9248   12.0766 H         1 UNK         0.0000 
     13 C13         5.4704   -9.4228   13.2499 C.3       1 UNK         0.0000 
     14 H14         6.4239   -9.2380   13.7495 H         1 UNK         0.0000 
     15 O15         4.8542   -8.1448   13.1189 O.3       1 UNK         0.0000 
     16 C16         4.6341  -10.3611   14.1325 C.ar      1 UNK         0.0000 
     17 N17         5.1751  -11.4955   14.5666 N.2       1 UNK         0.0000 
     18 C18         4.2493  -12.1145   15.2661 C.ar      1 UNK         0.0000 
     19 N19         3.0745  -11.4141   15.3030 N.pl3     1 UNK         0.0000 
     20 H20         2.2115  -11.6912   15.7598 H         1 UNK         0.0000 
     21 C21         3.3118  -10.2779   14.5706 C.ar      1 UNK         0.0000 
     22 C22         6.6100   -9.2177   10.9046 C.2       1 UNK         0.0000 
     23 N23         7.1192   -9.8278    9.8266 N.pl3     1 UNK         0.0000 
     24 H24         6.8002  -10.7778    9.6534 H         1 UNK         0.0000 
     25 C25         8.0317   -9.2154    8.8633 C.3       1 UNK         0.0000 
     26 C26         8.8019   -8.0696    9.5746 C.3       1 UNK         0.0000 
     27 C27         7.9798   -7.1582   10.5370 C.3       1 UNK         0.0000 
     28 H28         8.6122   -6.9425   11.4040 H         1 UNK         0.0000 
     29 N29         6.8461   -7.9097   11.1284 N.pl3     1 UNK         0.0000 
     30 C30         7.6071   -5.7247   10.0249 C.2       1 UNK         0.0000 
     31 O31         8.0039   -4.7640   10.6657 O.2       1 UNK         0.0000 
     32 N32         6.8970   -5.4104    8.9268 N.am      1 UNK         0.0000 
     33 C33         6.3544   -6.2292    7.8564 C.3       1 UNK         0.0000 
     34 H34         6.1106   -7.1884    8.3159 H         1 UNK         0.0000 
     35 C35         7.3458   -6.5143    6.6928 C.3       1 UNK         0.0000 
     36 C36         7.8139   -5.3740    5.7470 C.3       1 UNK         0.0000 
     37 C37         9.0473   -4.5366    6.1773 C.3       1 UNK         0.0000 
     38 N38         8.6967   -3.4796    7.2372 N.4       1 UNK         0.0000 
     39 H39         7.9944   -2.8432    6.8775 H         1 UNK         0.0000 
     40 H40         8.3745   -3.9148    8.0932 H         1 UNK         0.0000 
     41 H41         9.5108   -2.9175    7.4610 H         1 UNK         0.0000 
     42 C42         5.0001   -5.6472    7.3899 C.2       1 UNK         0.0000 
     43 O43         4.0674   -6.4572    7.2503 O.co2     1 UNK         0.0000 
     44 N44         4.8975   -4.2932    7.2176 N.am      1 UNK         0.0000 
     45 C45         3.7322   -3.3713    7.0029 C.3       1 UNK         0.0000 
     46 H46         4.0297   -2.5423    7.6425 H         1 UNK         0.0000 
     47 C47         2.3658   -3.8303    7.6063 C.3       1 UNK         0.0000 
     48 O48         1.6743   -4.7146    6.7715 O.co2     1 UNK         0.0000 
     49 C49         3.6933   -2.6178    5.6203 C.2       1 UNK         0.0000 
     50 O50         4.7758   -2.1845    5.2266 O.2       1 UNK         0.0000 
     51 N51         2.4973   -2.4169    5.0073 N.am      1 UNK         0.0000 
     52 C52         2.1308   -1.5542    3.8687 C.3       1 UNK         0.0000 
     53 H53         2.7866   -0.6801    3.9143 H         1 UNK         0.0000 
     54 C54         0.6704   -1.0588    4.0265 C.3       1 UNK         0.0000 
     55 O55         0.5029   -0.2995    5.2072 O.3       1 UNK         0.0000 
     56 C56         2.3201   -2.1364    2.4382 C.2       1 UNK         0.0000 
     57 O57         2.9255   -1.4413    1.6319 O.2       1 UNK         0.0000 
     58 N58         1.8175   -3.3198    2.0170 N.am      1 UNK         0.0000 
     59 C59         1.1097   -4.3675    2.7689 C.3       1 UNK         0.0000 
     60 H60         0.6438   -3.9044    3.6441 H         1 UNK         0.0000 
     61 C61         2.0259   -5.5564    3.2318 C.3       1 UNK         0.0000 
     62 H62         2.1282   -6.2065    2.3513 H         1 UNK         0.0000 
     63 C63         3.5161   -5.2588    3.5680 C.2       1 UNK         0.0000 
     64 O64         4.2672   -4.7766    2.7070 O.co2     1 UNK         0.0000 
     65 O65         3.8666   -5.6179    4.7331 O.co2     1 UNK         0.0000 
     66 O66         1.2923   -6.1740    4.2848 O.co2     1 UNK         0.0000 
     67 C67        -0.0546   -5.0761    2.0238 C.2       1 UNK         0.0000 
     68 N68        -0.2135   -4.9312    0.7017 N.pl3     1 UNK         0.0000 
     69 H69         0.4295   -4.2938    0.2432 H         1 UNK         0.0000 
     70 C70        -1.0748   -5.8276   -0.0892 C.3       1 UNK         0.0000 
     71 C71        -1.0711   -7.2068    0.6196 C.3       1 UNK         0.0000 
     72 C72        -1.5010   -7.1243    2.1095 C.3       1 UNK         0.0000 
     73 H73        -2.5862   -7.0453    2.2374 H         1 UNK         0.0000 
     74 N74        -0.8865   -5.9180    2.7004 N.pl3     1 UNK         0.0000 
     75 C75        -1.0462   -8.3962    2.8935 C.2       1 UNK         0.0000 
     76 O76        -1.8711   -9.2950    3.0150 O.2       1 UNK         0.0000 
     77 N77         0.2025   -8.4651    3.4084 N.am      1 UNK         0.0000 
     78 C78         0.6648   -9.2638    4.5855 C.3       1 UNK         0.0000 
     79 H79         0.4259  -10.3097    4.3785 H         1 UNK         0.0000 
     80 C80         2.2714   -9.2790    4.6477 C.2       1 UNK         0.0000 
     81 O81         2.9116   -8.3334    5.2266 O.co2     1 UNK         0.0000 
     82 O82         2.8006  -10.2244    4.0341 O.co2     1 UNK         0.0000 
     83 C83        -0.1364   -8.8351    5.8915 C.3       1 UNK         0.0000 
     84 H84        -0.5755   -7.8603    5.7015 H         1 UNK         0.0000 
     85 O85        -1.2592   -9.6924    6.0955 O.3       1 UNK         0.0000 
     86 C86         0.5588   -8.5196    7.2516 C.2       1 UNK         0.0000 
     87 O87         0.1250   -9.1074    8.2674 O.co2     1 UNK         0.0000 
     88 O88         1.3802   -7.5587    7.2881 O.co2     1 UNK         0.0000 
     89 H89         2.5048   -2.8293   13.2385 H         1 UNK         0.0000 
     90 H90         2.1164   -4.5440   13.2979 H         1 UNK         0.0000 
     91 H91         0.8344   -3.3454   13.4375 H         1 UNK         0.0000 
     92 H92         2.5354   -3.7907   10.9191 H         1 UNK         0.0000 
     93 H93         1.3119   -2.5750   11.0757 H         1 UNK         0.0000 
     94 H94         0.3637   -4.4465    9.8329 H         1 UNK         0.0000 
     95 H95        -0.4630   -4.2807   11.3375 H         1 UNK         0.0000 
     96 H96        -0.0791   -6.6332   10.8120 H         1 UNK         0.0000 
     97 H97         0.7417   -6.2260   12.2905 H         1 UNK         0.0000 
     98 H98         2.9228   -6.0671   11.0008 H         1 UNK         0.0000 
     99 H99         2.0466   -6.4401    9.5317 H         1 UNK         0.0000 
    100 H100        1.3441   -8.6413   10.5111 H         1 UNK         0.0000 
    101 H101        2.2670   -8.2937   11.9487 H         1 UNK         0.0000 
    102 H102        4.3641   -8.1621   10.4776 H         1 UNK         0.0000 
    103 H103        3.3896   -8.5701    9.0927 H         1 UNK         0.0000 
    104 H104        4.4929  -11.6867   11.2847 H         1 UNK         0.0000 
    105 H105        4.4013   -7.9565   13.9575 H         1 UNK         0.0000 
    106 H106        4.3241  -13.0737   15.7713 H         1 UNK         0.0000 
    107 H107        2.5269   -9.5490   14.4160 H         1 UNK         0.0000 
    108 H108        7.4352   -8.8900    8.0116 H         1 UNK         0.0000 
    109 H109        8.7136   -9.9868    8.4972 H         1 UNK         0.0000 
    110 H110        9.3869   -7.4920    8.8609 H         1 UNK         0.0000 
    111 H111        9.5622   -8.5640   10.1857 H         1 UNK         0.0000 
    112 H112        6.3255   -7.5256   11.9238 H         1 UNK         0.0000 
    113 H113        6.4428   -4.5078    8.9905 H         1 UNK         0.0000 
    114 H114        6.8530   -7.2556    6.0603 H         1 UNK         0.0000 
    115 H115        8.2256   -7.0298    7.0560 H         1 UNK         0.0000 
    116 H116        6.9908   -4.7305    5.4311 H         1 UNK         0.0000 
    117 H117        8.1162   -5.8670    4.8163 H         1 UNK         0.0000 
    118 H118        9.4468   -3.9409    5.3516 H         1 UNK         0.0000 
    119 H119        9.8580   -5.1397    6.5947 H         1 UNK         0.0000 
    120 H120        5.7345   -3.7866    7.0172 H         1 UNK         0.0000 
    121 H121        1.7989   -2.9281    7.8493 H         1 UNK         0.0000 
    122 H122        2.5377   -4.2339    8.6075 H         1 UNK         0.0000 
    123 H123        1.7144   -2.8211    5.5150 H         1 UNK         0.0000 
    124 H124       -0.0509   -1.8752    4.0340 H         1 UNK         0.0000 
    125 H125        0.4007   -0.4255    3.1799 H         1 UNK         0.0000 
    126 H126        0.7628    0.6129    5.0402 H         1 UNK         0.0000 
    127 H127        2.2989   -3.6298    1.1859 H         1 UNK         0.0000 
    128 H128       -0.6983   -5.9001   -1.1120 H         1 UNK         0.0000 
    129 H129       -2.0808   -5.4002   -0.1078 H         1 UNK         0.0000 
    130 H130       -0.0655   -7.6302    0.5519 H         1 UNK         0.0000 
    131 H131       -1.7186   -7.9117    0.0967 H         1 UNK         0.0000 
    132 H132       -0.5455   -6.0173    3.6675 H         1 UNK         0.0000 
    133 H133        0.8611   -7.7144    3.1955 H         1 UNK         0.0000 
    134 H134       -1.3215   -9.7597    7.0649 H         1 UNK         0.0000 
    135 Fe135       2.4876   -6.4502    5.9604 Fe        1 UNK         0.0000 
@<TRIPOS>BOND
     1    1    2 1    
     2    1   89 1    
     3    1   90 1    
     4    1   91 1    
     5    2    3 1    
     6    2   92 1    
     7    2   93 1    
     8    3    4 1    
     9    3   94 1    
    10    3   95 1    
    11    4    5 1    
    12    4   96 1    
    13    4   97 1    
    14    5    6 1    
    15    5   98 1    
    16    5   99 1    
    17    6    7 1    
    18    6  100 1    
    19    6  101 1    
    20    7    8 1    
    21    7  102 1    
    22    7  103 1    
    23    8    9 2    
    24    8   10 am   BACKBONE|DICT|INTERRES
    25   10  104 1    
    26   10   11 1    
    27   11   13 1    
    28   11   22 1    
    29   11   12 1    
    30   13   14 1    
    31   13   15 1    
    32   13   16 1    
    33   15  105 1    
    34   16   17 ar   
    35   16   21 ar   
    36   17   18 ar   
    37   18   19 ar   
    38   18  106 1    
    39   19   20 1    
    40   19   21 ar   
    41   21  107 1    
    42   22   23 2    
    43   22   29 1    
    44   23   24 1    
    45   23   25 1    
    46   25   26 1    
    47   25  108 1    
    48   25  109 1    
    49   26   27 1    
    50   26  110 1    
    51   26  111 1    
    52   27   29 1    
    53   27   30 1    
    54   27   28 1    
    55   29  112 1    
    56   30   31 2    
    57   30   32 am   BACKBONE|DICT|INTERRES
    58   32  113 1    
    59   32   33 1    
    60   33   35 1    
    61   33   42 1    
    62   33   34 1    
    63   35   36 1    
    64   35  114 1    
    65   35  115 1    
    66   36   37 1    
    67   36  116 1    
    68   36  117 1    
    69   37   38 1    
    70   37  118 1    
    71   37  119 1    
    72   38   39 1    
    73   38   40 1    
    74   38   41 1    
    75   42   43 2    
    76   42   44 am   BACKBONE|DICT|INTERRES
    77   43  135 nc   
    78   44  120 1    
    79   44   45 1    
    80   45   47 1    
    81   45   49 1    
    82   45   46 1    
    83   47   48 1    
    84   47  121 1    
    85   47  122 1    
    86   48  135 nc   
    87   49   50 2    
    88   49   51 am   BACKBONE|DICT|INTERRES
    89   51  123 1    
    90   51   52 1    
    91   52   54 1    
    92   52   56 1    
    93   52   53 1    
    94   54   55 1    
    95   54  124 1    
    96   54  125 1    
    97   55  126 1    
    98   56   57 2    
    99   56   58 am   BACKBONE|DICT|INTERRES
   100   58  127 1    
   101   58   59 1    
   102   59   61 1    
   103   59   67 1    
   104   59   60 1    
   105   61   62 1    
   106   61   63 1    
   107   61   66 1    
   108   63   64 2    
   109   63   65 1    
   110   65  135 nc   
   111   66  135 nc   
   112   67   68 2    
   113   67   74 1    
   114   68   69 1    
   115   68   70 1    
   116   70   71 1    
   117   70  128 1    
   118   70  129 1    
   119   71   72 1    
   120   71  130 1    
   121   71  131 1    
   122   72   74 1    
   123   72   75 1    
   124   72   73 1    
   125   74  132 1    
   126   75   76 2    
   127   75   77 am   BACKBONE|DICT|INTERRES
   128   77   78 1    
   129   77  133 1    
   130   78   79 1    
   131   78   80 1    
   132   78   83 1    
   133   80   81 1    
   134   80   82 2    
   135   81  135 nc   
   136   83   84 1    
   137   83   85 1    
   138   83   86 1    
   139   85  134 1    
   140   86   87 2    
   141   86   88 1    
   142   88  135 nc   
@<TRIPOS>SUBSTRUCTURE
     1 UNK         1 GROUP             0       ****    0 ROOT    
@<TRIPOS>MOLECULE
200_c1
45   51    1
SMALL
USER_CHARGES


@<TRIPOS>ATOM
      1 O1          2.3486   -3.1975   -3.6444 O.co2     1 UNK         0.0000 
      2 C2          0.9075   -3.3118   -3.6658 C.3       1 UNK         0.0000 
      3 H3          0.8153   -4.2396   -3.0926 H         1 UNK         0.0000 
      4 C4          0.0690   -2.1760   -2.8999 C.3       1 UNK         0.0000 
      5 H5         -0.8346   -2.7059   -2.5961 H         1 UNK         0.0000 
      6 C6          0.6829   -1.5733   -1.6281 C.3       1 UNK         0.0000 
      7 O7          1.7959   -0.8001   -1.9612 O.co2     1 UNK         0.0000 
      8 O8         -0.4431   -1.0097   -3.6166 O.3       1 UNK         0.0000 
      9 C9         -0.7077   -0.9799   -5.0258 C.3       1 UNK         0.0000 
     10 H10        -1.6186   -0.4034   -5.1879 H         1 UNK         0.0000 
     11 C11        -0.9352   -2.4871   -5.4894 C.3       1 UNK         0.0000 
     12 H12        -1.0313   -2.5196   -6.5699 H         1 UNK         0.0000 
     13 O13        -2.2659   -2.8900   -5.1214 O.3       1 UNK         0.0000 
     14 C14         0.1617   -3.5613   -5.0432 C.3       1 UNK         0.0000 
     15 H15        -0.4001   -4.4945   -4.9317 H         1 UNK         0.0000 
     16 O16         1.0871   -3.8765   -6.0702 O.3       1 UNK         0.0000 
     17 C17         0.3782   -0.1403   -5.7518 C.ar      1 UNK         0.0000 
     18 C18         1.0134    1.0036   -5.1631 C.ar      1 UNK         0.0000 
     19 C19         2.3707    1.3413   -5.5149 C.ar      1 UNK         0.0000 
     20 C20         2.8885    0.6535   -6.6252 C.ar      1 UNK         0.0000 
     21 O21         4.1474    0.8307   -7.1372 O.3       1 UNK         0.0000 
     22 C22         2.4397   -0.6608   -6.6833 C.ar      1 UNK         0.0000 
     23 O23         2.7794   -1.3749   -5.6678 O.co2     1 UNK         0.0000 
     24 C24         1.0750   -0.7598   -6.7935 C.ar      1 UNK         0.0000 
     25 C25         3.3574    1.4195   -4.3520 C.2       1 UNK         0.0000 
     26 O26         3.0041    0.8377   -3.3693 O.co2     1 UNK         0.0000 
     27 N27         4.6969    1.3982   -4.5163 N.am      1 UNK         0.0000 
     28 C28         5.7378    0.6437   -3.6851 C.3       1 UNK         0.0000 
     29 H29         6.6023    1.3076   -3.6256 H         1 UNK         0.0000 
     30 C30         5.4244    0.2368   -2.1464 C.2       1 UNK         0.0000 
     31 O31         4.5666   -0.7099   -1.9649 O.co2     1 UNK         0.0000 
     32 O32         6.0855    0.8900   -1.3014 O.co2     1 UNK         0.0000 
     33 C33         6.1760   -0.6426   -4.4757 C.3       1 UNK         0.0000 
     34 O34         5.1709   -1.6291   -4.4459 O.co2     1 UNK         0.0000 
     35 H35        -0.0896   -0.9937   -1.1165 H         1 UNK         0.0000 
     36 H36         0.9083   -2.3547   -0.8904 H         1 UNK         0.0000 
     37 H37        -2.7625   -2.0973   -4.9189 H         1 UNK         0.0000 
     38 H38         0.6095    1.3286   -4.2079 H         1 UNK         0.0000 
     39 H39         0.7410   -1.7002   -7.1829 H         1 UNK         0.0000 
     40 H40         4.9609    1.5287   -5.4862 H         1 UNK         0.0000 
     41 H41         7.1156   -0.9988   -4.0400 H         1 UNK         0.0000 
     42 H42         6.4776   -0.3539   -5.4882 H         1 UNK         0.0000 
     43 Fe43        3.2338   -1.2162   -3.5077 Fe        1 UNK         0.0000 
     44 H44         1.8777   -3.3641   -5.8018 H         1 UNK         0.0000 
     45 H45         4.4293   -0.0897   -7.2235 H         1 UNK         0.0000 
@<TRIPOS>BOND
     1    1    2 1    
     2    1   43 nc   
     3    2    4 1    
     4    2    3 1    
     5    2   14 1    
     6    4    5 1    
     7    4    6 1    
     8    4    8 1    
     9    6    7 1    
    10    6   35 1    
    11    6   36 1    
    12    7   43 nc   
    13    8    9 1    
    14    9   11 1    
    15    9   17 1    
    16    9   10 1    
    17   11   12 1    
    18   11   13 1    
    19   11   14 1    
    20   13   37 1    
    21   14   16 1    
    22   14   15 1    
    23   16   44 1    
    24   17   18 ar   
    25   17   24 ar   
    26   18   19 ar   
    27   18   38 1    
    28   19   20 ar   
    29   19   25 1    
    30   20   21 1    
    31   20   22 ar   
    32   21   45 1    
    33   22   23 1    
    34   22   24 ar   
    35   23   43 nc   
    36   24   39 1    
    37   25   26 2    
    38   25   27 am   BACKBONE|DICT|INTERRES
    39   26   43 nc   
    40   27   40 1    
    41   27   28 1    
    42   28   30 1    
    43   28   33 1    
    44   28   29 1    
    45   30   31 1    
    46   30   32 2    
    47   31   43 nc   
    48   33   34 1    
    49   33   41 1    
    50   33   42 1    
    51   34   43 nc   
@<TRIPOS>SUBSTRUCTURE
     1 UNK         1 GROUP             0       ****    0 ROOT    
@<TRIPOS>MOLECULE
202_c1
152   157    1
SMALL
USER_CHARGES


@<TRIPOS>ATOM
      1 C1         57.4807    2.0169   40.9743 C.3       1 UNK         0.0000 
      2 C2         56.1757    2.3246   40.2120 C.3       1 UNK         0.0000 
      3 C3         56.3837    2.3019   38.6819 C.3       1 UNK         0.0000 
      4 C4         55.2008    2.8210   37.8254 C.3       1 UNK         0.0000 
      5 C5         53.8770    1.9964   37.8079 C.3       1 UNK         0.0000 
      6 C6         52.8598    2.6300   36.8090 C.3       1 UNK         0.0000 
      7 C7         51.3645    2.1883   36.8544 C.3       1 UNK         0.0000 
      8 C8         50.9303    0.8006   36.2875 C.3       1 UNK         0.0000 
      9 C9         50.9853    0.5329   34.7477 C.3       1 UNK         0.0000 
     10 C10        50.1272    1.3888   33.7541 C.3       1 UNK         0.0000 
     11 C11        48.5596    1.3324   33.7676 C.3       1 UNK         0.0000 
     12 C12        47.7901    0.0228   33.3720 C.3       1 UNK         0.0000 
     13 C13        47.8650   -0.5659   31.9162 C.3       1 UNK         0.0000 
     14 C14        47.0173    0.0103   30.7138 C.3       1 UNK         0.0000 
     15 C15        45.4787   -0.3179   30.6119 C.3       1 UNK         0.0000 
     16 C16        44.7765    0.0878   29.2628 C.2       1 UNK         0.0000 
     17 O17        44.9119    1.2256   28.8492 O.2       1 UNK         0.0000 
     18 N18        44.0099   -0.8226   28.6078 N.am      1 UNK         0.0000 
     19 C19        43.1217   -0.6083   27.4135 C.3       1 UNK         0.0000 
     20 H20        43.3248    0.3861   27.0033 H         1 UNK         0.0000 
     21 C21        43.5059   -1.6245   26.2614 C.3       1 UNK         0.0000 
     22 C22        42.9301   -1.5119   24.7919 C.3       1 UNK         0.0000 
     23 C23        41.6472   -2.3634   24.4986 C.3       1 UNK         0.0000 
     24 N24        41.4747   -2.9879   23.1457 N.am      1 UNK         0.0000 
     25 O25        40.5794   -2.3803   22.3655 O.co2     1 UNK         0.0000 
     26 C26        41.8392   -4.2662   22.8949 C.2       1 UNK         0.0000 
     27 O27        41.0616   -4.9689   22.2104 O.co2     1 UNK         0.0000 
     28 C28        43.1538   -4.6444   23.3514 C.2       1 UNK         0.0000 
     29 C29        43.8000   -5.8221   23.2231 C.2       1 UNK         0.0000 
     30 C30        43.2010   -7.0827   22.5931 C.3       1 UNK         0.0000 
     31 C31        45.2403   -5.8057   23.7415 C.3       1 UNK         0.0000 
     32 C32        46.1239   -7.0531   23.6268 C.3       1 UNK         0.0000 
     33 O33        45.7232   -8.0573   24.5464 O.3       1 UNK         0.0000 
     34 C34        41.6141   -0.5517   27.7909 C.2       1 UNK         0.0000 
     35 C35        41.1175   -0.7233   29.0472 C.2       1 UNK         0.0000 
     36 O36        40.8562   -0.2745   26.6928 O.3       1 UNK         0.0000 
     37 C37        39.4671    0.0848   26.8610 C.3       1 UNK         0.0000 
     38 C38        38.5017   -1.1196   27.0725 C.3       1 UNK         0.0000 
     39 C39        37.6759   -1.4137   25.8171 C.2       1 UNK         0.0000 
     40 C40        36.5064   -0.4325   25.6728 C.3       1 UNK         0.0000 
     41 C41        38.1308   -2.4204   25.0355 C.2       1 UNK         0.0000 
     42 C42        37.9075   -3.0236   23.7174 C.2       1 UNK         0.0000 
     43 O43        38.6005   -4.0287   23.4869 O.co2     1 UNK         0.0000 
     44 N44        37.3456   -2.4332   22.6005 N.am      1 UNK         0.0000 
     45 O45        37.7465   -2.7576   21.3542 O.co2     1 UNK         0.0000 
     46 C46        36.2623   -1.4317   22.5563 C.3       1 UNK         0.0000 
     47 C47        34.9623   -1.8133   23.3045 C.3       1 UNK         0.0000 
     48 C48        34.1122   -3.0049   22.8238 C.3       1 UNK         0.0000 
     49 C49        33.1945   -2.7808   21.5659 C.3       1 UNK         0.0000 
     50 H50        32.5755   -1.8921   21.7195 H         1 UNK         0.0000 
     51 C51        32.1558   -3.9657   21.4581 C.2       1 UNK         0.0000 
     52 O52        31.0049   -3.9583   21.8816 O.2       1 UNK         0.0000 
     53 N53        32.6203   -5.0144   20.7396 N.am      1 UNK         0.0000 
     54 C54        33.9978   -4.9737   20.1834 C.3       1 UNK         0.0000 
     55 H55        34.6403   -4.9428   21.0494 H         1 UNK         0.0000 
     56 C56        34.2640   -3.5938   19.4772 C.2       1 UNK         0.0000 
     57 O57        34.6636   -3.3916   18.3344 O.2       1 UNK         0.0000 
     58 N58        33.8861   -2.5650   20.2642 N.am      1 UNK         0.0000 
     59 C59        34.5112   -6.2432   19.4514 C.3       1 UNK         0.0000 
     60 C60        35.9654   -6.6517   19.8376 C.3       1 UNK         0.0000 
     61 C61        37.0265   -5.7295   19.1804 C.3       1 UNK         0.0000 
     62 N62        38.3575   -5.5253   19.8016 N.am      1 UNK         0.0000 
     63 O63        38.3682   -5.6358   21.1318 O.co2     1 UNK         0.0000 
     64 C64        39.3101   -4.8118   19.1324 C.2       1 UNK         0.0000 
     65 O65        39.9983   -3.9923   19.7817 O.co2     1 UNK         0.0000 
     66 C66        39.6487   -5.2517   17.8059 C.2       1 UNK         0.0000 
     67 C67        38.9314   -5.0918   16.6552 C.2       1 UNK         0.0000 
     68 C68        37.6507   -4.2522   16.4788 C.3       1 UNK         0.0000 
     69 C69        39.4446   -5.8541   15.4371 C.3       1 UNK         0.0000 
     70 C70        38.4928   -6.0930   14.2498 C.3       1 UNK         0.0000 
     71 O71        37.3910   -6.9089   14.6275 O.3       1 UNK         0.0000 
     72 H72        57.8861    1.0407   40.7012 H         1 UNK         0.0000 
     73 H73        57.3259    2.0137   42.0522 H         1 UNK         0.0000 
     74 H74        58.2552    2.7572   40.7621 H         1 UNK         0.0000 
     75 H75        55.4052    1.6056   40.4939 H         1 UNK         0.0000 
     76 H76        55.8000    3.3019   40.5225 H         1 UNK         0.0000 
     77 H77        56.6795    1.3011   38.3556 H         1 UNK         0.0000 
     78 H78        57.2438    2.9365   38.4543 H         1 UNK         0.0000 
     79 H79        55.5617    2.9076   36.7970 H         1 UNK         0.0000 
     80 H80        54.9803    3.8490   38.1301 H         1 UNK         0.0000 
     81 H81        54.0839    0.9589   37.5337 H         1 UNK         0.0000 
     82 H82        53.4553    1.9630   38.8165 H         1 UNK         0.0000 
     83 H83        53.2462    2.5589   35.7894 H         1 UNK         0.0000 
     84 H84        52.8496    3.7015   37.0263 H         1 UNK         0.0000 
     85 H85        50.7799    2.9576   36.3482 H         1 UNK         0.0000 
     86 H86        51.0340    2.2366   37.8950 H         1 UNK         0.0000 
     87 H87        49.9093    0.6172   36.6229 H         1 UNK         0.0000 
     88 H88        51.5265    0.0318   36.7832 H         1 UNK         0.0000 
     89 H89        50.7476   -0.5192   34.5845 H         1 UNK         0.0000 
     90 H90        52.0284    0.6285   34.4393 H         1 UNK         0.0000 
     91 H91        50.4601    1.1464   32.7438 H         1 UNK         0.0000 
     92 H92        50.4168    2.4325   33.8920 H         1 UNK         0.0000 
     93 H93        48.2014    2.1388   33.1250 H         1 UNK         0.0000 
     94 H94        48.2314    1.6178   34.7690 H         1 UNK         0.0000 
     95 H95        46.7408    0.1612   33.6377 H         1 UNK         0.0000 
     96 H96        48.1411   -0.7576   34.0495 H         1 UNK         0.0000 
     97 H97        47.6202   -1.6265   32.0043 H         1 UNK         0.0000 
     98 H98        48.9132   -0.5623   31.6142 H         1 UNK         0.0000 
     99 H99        47.4742   -0.4166   29.8192 H         1 UNK         0.0000 
    100 H100       47.1841    1.0862   30.6226 H         1 UNK         0.0000 
    101 H101       45.2830   -1.3649   30.8399 H         1 UNK         0.0000 
    102 H102       44.9570    0.2460   31.3808 H         1 UNK         0.0000 
    103 H103       43.9306   -1.7232   29.0449 H         1 UNK         0.0000 
    104 H104       43.3636   -2.6458   26.6314 H         1 UNK         0.0000 
    105 H105       44.5899   -1.5238   26.1446 H         1 UNK         0.0000 
    106 H106       43.7275   -1.8187   24.1101 H         1 UNK         0.0000 
    107 H107       42.7753   -0.4734   24.4968 H         1 UNK         0.0000 
    108 H108       41.5847   -3.1588   25.2436 H         1 UNK         0.0000 
    109 H109       40.7845   -1.7289   24.6848 H         1 UNK         0.0000 
    110 H110       43.6945   -3.8461   23.8337 H         1 UNK         0.0000 
    111 H111       42.3220   -7.4094   23.1523 H         1 UNK         0.0000 
    112 H112       43.8881   -7.9210   22.5821 H         1 UNK         0.0000 
    113 H113       42.8881   -6.9069   21.5605 H         1 UNK         0.0000 
    114 H114       45.2089   -5.4700   24.7767 H         1 UNK         0.0000 
    115 H115       45.7366   -5.0083   23.1877 H         1 UNK         0.0000 
    116 H116       47.1516   -6.7656   23.8611 H         1 UNK         0.0000 
    117 H117       46.1423   -7.4379   22.6020 H         1 UNK         0.0000 
    118 H118       46.0103   -7.8112   25.4315 H         1 UNK         0.0000 
    119 H119       41.7633   -0.9228   29.8848 H         1 UNK         0.0000 
    120 H120       40.0574   -0.6586   29.2640 H         1 UNK         0.0000 
    121 H121       39.2146    0.5879   25.9230 H         1 UNK         0.0000 
    122 H122       39.3290    0.8581   27.6260 H         1 UNK         0.0000 
    123 H123       39.0824   -1.9996   27.3678 H         1 UNK         0.0000 
    124 H124       37.8398   -0.9414   27.9129 H         1 UNK         0.0000 
    125 H125       36.5329    0.3105   26.4608 H         1 UNK         0.0000 
    126 H126       35.5468   -0.9031   25.8287 H         1 UNK         0.0000 
    127 H127       36.5334    0.1355   24.7577 H         1 UNK         0.0000 
    128 H128       38.9671   -2.9611   25.4698 H         1 UNK         0.0000 
    129 H129       35.9599   -1.2402   21.5261 H         1 UNK         0.0000 
    130 H130       36.6771   -0.4643   22.8317 H         1 UNK         0.0000 
    131 H131       34.3469   -0.9276   23.4111 H         1 UNK         0.0000 
    132 H132       35.2568   -2.1423   24.2872 H         1 UNK         0.0000 
    133 H133       33.4791   -3.2893   23.6676 H         1 UNK         0.0000 
    134 H134       34.7892   -3.8549   22.7150 H         1 UNK         0.0000 
    135 H135       31.9876   -5.7850   20.5861 H         1 UNK         0.0000 
    136 H136       34.0082   -1.6470   19.8697 H         1 UNK         0.0000 
    137 H137       33.8490   -7.0621   19.7397 H         1 UNK         0.0000 
    138 H138       34.3843   -6.1376   18.3721 H         1 UNK         0.0000 
    139 H139       36.1405   -7.6700   19.4953 H         1 UNK         0.0000 
    140 H140       36.0724   -6.7033   20.9254 H         1 UNK         0.0000 
    141 H141       36.6301   -4.7215   19.1695 H         1 UNK         0.0000 
    142 H142       37.0720   -6.0551   18.1439 H         1 UNK         0.0000 
    143 H143       40.5644   -5.8336   17.8026 H         1 UNK         0.0000 
    144 H144       37.3767   -3.6640   17.3568 H         1 UNK         0.0000 
    145 H145       36.7911   -4.8921   16.2664 H         1 UNK         0.0000 
    146 H146       37.7411   -3.5524   15.6534 H         1 UNK         0.0000 
    147 H147       39.7800   -6.8279   15.7933 H         1 UNK         0.0000 
    148 H148       40.3298   -5.3294   15.0934 H         1 UNK         0.0000 
    149 H149       39.0373   -6.6123   13.4608 H         1 UNK         0.0000 
    150 H150       38.1562   -5.1478   13.8146 H         1 UNK         0.0000 
    151 H151       36.8492   -7.1154   13.8586 H         1 UNK         0.0000 
    152 Fe152      39.3757   -3.9477   21.7000 Fe        1 UNK         0.0000 
@<TRIPOS>BOND
     1    1    2 1    
     2    1   72 1    
     3    1   73 1    
     4    1   74 1    
     5    2    3 1    
     6    2   75 1    
     7    2   76 1    
     8    3    4 1    
     9    3   77 1    
    10    3   78 1    
    11    4    5 1    
    12    4   79 1    
    13    4   80 1    
    14    5    6 1    
    15    5   81 1    
    16    5   82 1    
    17    6    7 1    
    18    6   83 1    
    19    6   84 1    
    20    7    8 1    
    21    7   85 1    
    22    7   86 1    
    23    8    9 1    
    24    8   87 1    
    25    8   88 1    
    26    9   10 1    
    27    9   89 1    
    28    9   90 1    
    29   10   11 1    
    30   10   91 1    
    31   10   92 1    
    32   11   12 1    
    33   11   93 1    
    34   11   94 1    
    35   12   13 1    
    36   12   95 1    
    37   12   96 1    
    38   13   14 1    
    39   13   97 1    
    40   13   98 1    
    41   14   15 1    
    42   14   99 1    
    43   14  100 1    
    44   15   16 1    
    45   15  101 1    
    46   15  102 1    
    47   16   17 2    
    48   16   18 am   BACKBONE|DICT|INTERRES
    49   18   19 1    
    50   18  103 1    
    51   19   20 1    
    52   19   21 1    
    53   19   34 1    
    54   21   22 1    
    55   21  104 1    
    56   21  105 1    
    57   22   23 1    
    58   22  106 1    
    59   22  107 1    
    60   23   24 1    
    61   23  108 1    
    62   23  109 1    
    63   24   25 1    
    64   24   26 am   BACKBONE|DICT|INTERRES
    65   25  152 nc   
    66   26   27 2    
    67   26   28 1    
    68   27  152 nc   
    69   28   29 2    
    70   28  110 1    
    71   29   30 1    
    72   29   31 1    
    73   30  111 1    
    74   30  112 1    
    75   30  113 1    
    76   31   32 1    
    77   31  114 1    
    78   31  115 1    
    79   32   33 1    
    80   32  116 1    
    81   32  117 1    
    82   33  118 1    
    83   34   35 2    
    84   34   36 1    
    85   35  119 1    
    86   35  120 1    
    87   36   37 1    
    88   37   38 1    
    89   37  121 1    
    90   37  122 1    
    91   38   39 1    
    92   38  123 1    
    93   38  124 1    
    94   39   40 1    
    95   39   41 2    
    96   40  125 1    
    97   40  126 1    
    98   40  127 1    
    99   41   42 1    
   100   41  128 1    
   101   42   43 2    
   102   42   44 am   BACKBONE|DICT|INTERRES
   103   43  152 nc   
   104   44   45 1    
   105   44   46 1    
   106   45  152 nc   
   107   46   47 1    
   108   46  129 1    
   109   46  130 1    
   110   47   48 1    
   111   47  131 1    
   112   47  132 1    
   113   48  133 1    
   114   48  134 1    
   115   48   49 1    
   116   49   51 1    
   117   49   58 1    
   118   49   50 1    
   119   51   52 2    
   120   51   53 am   BACKBONE|DICT|INTERRES
   121   53   54 1    
   122   53  135 1    
   123   54   56 1    
   124   54   59 1    
   125   54   55 1    
   126   56   57 2    
   127   56   58 am   BACKBONE|DICT|INTERRES
   128   58  136 1    
   129   59   60 1    
   130   59  137 1    
   131   59  138 1    
   132   60   61 1    
   133   60  139 1    
   134   60  140 1    
   135   61   62 1    
   136   61  141 1    
   137   61  142 1    
   138   62   63 1    
   139   62   64 am   BACKBONE|DICT|INTERRES
   140   63  152 nc   
   141   64   65 2    
   142   64   66 1    
   143   65  152 nc   
   144   66   67 2    
   145   66  143 1    
   146   67   68 1    
   147   67   69 1    
   148   68  144 1    
   149   68  145 1    
   150   68  146 1    
   151   69   70 1    
   152   69  147 1    
   153   69  148 1    
   154   70   71 1    
   155   70  149 1    
   156   70  150 1    
   157   71  151 1    
@<TRIPOS>SUBSTRUCTURE
     1 UNK         1 GROUP             0       ****    0 ROOT    
@<TRIPOS>MOLECULE
209_c1
111   118    1
SMALL
USER_CHARGES


@<TRIPOS>ATOM
      1 C1         -2.3498   -1.5370   -0.8368 C.ar      1 UNK         0.0000 
      2 C2         -1.8671   -0.2524   -0.5669 C.ar      1 UNK         0.0000 
      3 C3         -0.5100   -0.0444   -0.3243 C.ar      1 UNK         0.0000 
      4 O4         -0.0408    1.2174   -0.0435 O.3       1 UNK         0.0000 
      5 C5          0.3705   -1.1323   -0.3614 C.ar      1 UNK         0.0000 
      6 O6          1.7051   -0.9385   -0.1264 O.3       1 UNK         0.0000 
      7 C7         -0.1113   -2.4086   -0.6302 C.ar      1 UNK         0.0000 
      8 C8         -1.4762   -2.6399   -0.8691 C.ar      1 UNK         0.0000 
      9 C9         -1.9424   -4.0587   -1.1211 C.2       1 UNK         0.0000 
     10 O10        -1.1523   -4.9952   -1.0205 O.2       1 UNK         0.0000 
     11 N11        -3.2311   -4.2876   -1.4437 N.am      1 UNK         0.0000 
     12 C12        -3.7189   -5.6631   -1.5917 C.3       1 UNK         0.0000 
     13 C13        -5.1899   -5.8482   -2.0094 C.3       1 UNK         0.0000 
     14 C14        -5.5734   -7.3418   -1.8716 C.3       1 UNK         0.0000 
     15 C15        -6.9758   -7.7235   -2.3782 C.3       1 UNK         0.0000 
     16 N16        -7.2419   -9.1598   -2.1185 N.3       1 UNK         0.0000 
     17 C17        -7.8073   -9.2370   -0.7395 C.3       1 UNK         0.0000 
     18 C18        -9.3022   -8.8999   -0.7767 C.3       1 UNK         0.0000 
     19 C19       -10.1570   -8.2406    0.3307 C.3       1 UNK         0.0000 
     20 N20       -11.5441   -7.9971   -0.1525 N.am      1 UNK         0.0000 
     21 C21       -11.8305   -7.1065   -1.1376 C.2       1 UNK         0.0000 
     22 O22       -12.1705   -5.9564   -0.8746 O.2       1 UNK         0.0000 
     23 C23       -11.4856   -7.5356   -2.5579 C.ar      1 UNK         0.0000 
     24 C24       -11.3938   -8.9003   -2.8657 C.ar      1 UNK         0.0000 
     25 C25       -10.3121   -9.3364   -3.6308 C.ar      1 UNK         0.0000 
     26 O26        -9.9181  -10.5150   -3.4027 O.co2     1 UNK         0.0000 
     27 C27        -9.5378   -8.4250   -4.3745 C.ar      1 UNK         0.0000 
     28 O28        -8.4434   -8.7676   -4.9517 O.co2     1 UNK         0.0000 
     29 C29        -9.9135   -7.0751   -4.3545 C.ar      1 UNK         0.0000 
     30 C30       -10.8579   -6.6203   -3.4230 C.ar      1 UNK         0.0000 
     31 H31        -3.4074   -1.6580   -1.0067 H         1 UNK         0.0000 
     32 H32        -2.5535    0.5815   -0.5398 H         1 UNK         0.0000 
     33 H33        -0.7292    1.8861   -0.0314 H         1 UNK         0.0000 
     34 H34         1.8493   -0.0035    0.0557 H         1 UNK         0.0000 
     35 H35         0.5983   -3.2260   -0.6414 H         1 UNK         0.0000 
     36 H36        -3.8654   -3.5164   -1.5661 H         1 UNK         0.0000 
     37 H37        -3.5696   -6.1699   -0.6340 H         1 UNK         0.0000 
     38 H38        -3.0885   -6.2139   -2.2963 H         1 UNK         0.0000 
     39 H39        -5.3269   -5.5170   -3.0411 H         1 UNK         0.0000 
     40 H40        -5.8464   -5.2377   -1.3870 H         1 UNK         0.0000 
     41 H41        -4.8389   -7.9362   -2.4065 H         1 UNK         0.0000 
     42 H42        -5.4733   -7.6165   -0.8218 H         1 UNK         0.0000 
     43 H43        -7.0316   -7.4975   -3.4406 H         1 UNK         0.0000 
     44 H44        -7.7158   -7.0443   -1.9416 H         1 UNK         0.0000 
     45 H45        -7.2856   -8.5834   -0.0338 H         1 UNK         0.0000 
     46 H46        -7.6966  -10.2541   -0.3542 H         1 UNK         0.0000 
     47 H47        -9.8115   -9.8219   -1.0434 H         1 UNK         0.0000 
     48 H48        -9.3704   -8.1805   -1.5704 H         1 UNK         0.0000 
     49 H49        -9.6957   -7.3146    0.6856 H         1 UNK         0.0000 
     50 H50       -10.1855   -8.9021    1.1982 H         1 UNK         0.0000 
     51 H51       -11.9510   -8.8909   -0.3861 H         1 UNK         0.0000 
     52 H52       -11.8858   -9.6354   -2.2405 H         1 UNK         0.0000 
     53 H53        -9.3699   -6.3638   -4.9522 H         1 UNK         0.0000 
     54 H54       -10.9488   -5.5558   -3.2510 H         1 UNK         0.0000 
     55 O55        -7.4526  -12.0290   -2.7825 O.co2     1 UNK         0.0000 
     56 H56        -1.3911   -7.9716   -3.4634 H         1 UNK         0.0000 
     57 C57        -7.4181  -13.0275   -3.5678 C.ar      1 UNK         0.0000 
     58 H58        -6.2301  -14.1177   -2.1762 H         1 UNK         0.0000 
     59 O59         1.2194   -8.0875   -3.6099 O.2       1 UNK         0.0000 
     60 C60        -6.6882  -14.1336   -3.1553 C.ar      1 UNK         0.0000 
     61 H61        -3.4867   -9.2280   -3.5571 H         1 UNK         0.0000 
     62 H62        -3.0005  -15.5460   -4.3629 H         1 UNK         0.0000 
     63 H63        -4.6173  -14.0176   -6.1466 H         1 UNK         0.0000 
     64 H64        -4.7011  -12.7248   -3.6325 H         1 UNK         0.0000 
     65 C65         3.3433   -6.4580   -4.4936 C.ar      1 UNK         0.0000 
     66 O66         5.6270   -5.7545   -4.3702 O.3       1 UNK         0.0000 
     67 C67         0.9925   -7.3420   -4.5633 C.2       1 UNK         0.0000 
     68 H68        -5.8863  -12.1016   -5.9330 H         1 UNK         0.0000 
     69 C69        -1.3160   -8.1094   -4.5472 C.3       1 UNK         0.0000 
     70 N70        -3.8810  -15.0751   -4.4915 N.am      1 UNK         0.0000 
     71 H71         3.4688   -6.9393   -3.5329 H         1 UNK         0.0000 
     72 O72        -8.3397  -11.8973   -5.4021 O.co2     1 UNK         0.0000 
     73 H73        -3.1740   -7.0218   -4.8670 H         1 UNK         0.0000 
     74 C74        -3.9057  -13.8555   -5.3305 C.3       1 UNK         0.0000 
     75 H75        -5.5713   -8.3340   -4.6258 H         1 UNK         0.0000 
     76 C76        -3.5707   -9.1603   -4.6427 C.3       1 UNK         0.0000 
     77 C77        -7.8999  -12.9718   -4.8947 C.ar      1 UNK         0.0000 
     78 C78         4.4309   -5.7836   -5.0364 C.ar      1 UNK         0.0000 
     79 C79         2.1165   -6.5319   -5.1743 C.ar      1 UNK         0.0000 
     80 N80        -0.2486   -7.2657   -5.0898 N.am      1 UNK         0.0000 
     81 C81        -4.2287  -12.5245   -4.5890 C.3       1 UNK         0.0000 
     82 H82         6.2497   -5.2382   -4.8939 H         1 UNK         0.0000 
     83 C83        -2.7260   -7.9756   -5.1548 C.3       1 UNK         0.0000 
     84 C84        -5.1055  -11.5465   -5.4284 C.3       1 UNK         0.0000 
     85 N85        -5.7035  -10.4562   -4.6071 N.3       1 UNK         0.0000 
     86 C86        -5.0633   -9.1974   -5.0436 C.3       1 UNK         0.0000 
     87 C87        -6.2735  -15.0665   -4.1069 C.ar      1 UNK         0.0000 
     88 C88         4.3108   -5.1468   -6.2765 C.ar      1 UNK         0.0000 
     89 C89        -4.9299  -15.7094   -3.9230 C.2       1 UNK         0.0000 
     90 C90         2.0089   -5.8868   -6.4202 C.ar      1 UNK         0.0000 
     91 C91         3.0986   -5.1997   -6.9628 C.ar      1 UNK         0.0000 
     92 O92         5.3851   -4.4824   -6.8176 O.3       1 UNK         0.0000 
     93 H93        -0.4447   -6.6290   -5.8424 H         1 UNK         0.0000 
     94 C94        -7.7232  -14.0585   -5.7503 C.ar      1 UNK         0.0000 
     95 H95        -0.9877   -9.1472   -4.6722 H         1 UNK         0.0000 
     96 C96        -6.8862  -15.1034   -5.3651 C.ar      1 UNK         0.0000 
     97 H97         1.0956   -5.9227   -6.9915 H         1 UNK         0.0000 
     98 H98        -3.0668  -10.0439   -5.0288 H         1 UNK         0.0000 
     99 H99        -2.9306  -13.7676   -5.8162 H         1 UNK         0.0000 
    100 H100        5.2031   -4.1098   -7.6832 H         1 UNK         0.0000 
    101 H101       -3.2859  -12.0604   -4.3072 H         1 UNK         0.0000 
    102 H102        3.0010   -4.7173   -7.9241 H         1 UNK         0.0000 
    103 O103       -4.7624  -16.7229   -3.2529 O.2       1 UNK         0.0000 
    104 H104       -4.5193  -11.1886   -6.2799 H         1 UNK         0.0000 
    105 H105       -2.6801   -7.9983   -6.2462 H         1 UNK         0.0000 
    106 H106       -5.1722   -9.0745   -6.1247 H         1 UNK         0.0000 
    107 H107       -8.0988  -14.0182   -6.7626 H         1 UNK         0.0000 
    108 H108       -6.5956  -15.8388   -6.0980 H         1 UNK         0.0000 
    109 Fe109      -8.0169  -10.5062   -3.9640 Fe        1 UNK         0.0000 
    110 H110       -5.2859  -10.7151   -3.7072 H         1 UNK         0.0000 
    111 H111       -6.3135   -9.5535   -1.9415 H         1 UNK         0.0000 
@<TRIPOS>BOND
     1    1    2 ar   
     2    1    8 ar   
     3    1   31 1    
     4    2    3 ar   
     5    2   32 1    
     6    3    4 1    
     7    3    5 ar   
     8    4   33 1    
     9    5    6 1    
    10    5    7 ar   
    11    6   34 1    
    12    7    8 ar   
    13    7   35 1    
    14    8    9 1    
    15    9   10 2    
    16    9   11 am   BACKBONE|DICT|INTERRES
    17   11   12 1    
    18   11   36 1    
    19   12   13 1    
    20   12   37 1    
    21   12   38 1    
    22   13   14 1    
    23   13   39 1    
    24   13   40 1    
    25   14   15 1    
    26   14   41 1    
    27   14   42 1    
    28   15   16 1    
    29   15   43 1    
    30   15   44 1    
    31   16   17 1    
    32   16  109 nc   
    33   16  111 1    
    34   17   18 1    
    35   17   45 1    
    36   17   46 1    
    37   18   19 1    
    38   18   47 1    
    39   18   48 1    
    40   19   20 1    
    41   19   49 1    
    42   19   50 1    
    43   20   21 am   BACKBONE|DICT|INTERRES
    44   20   51 1    
    45   21   22 2    
    46   21   23 1    
    47   23   24 ar   
    48   23   30 ar   
    49   24   25 ar   
    50   24   52 1    
    51   25   26 1    
    52   25   27 ar   
    53   26  109 nc   
    54   27   28 1    
    55   27   29 ar   
    56   28  109 nc   
    57   29   30 ar   
    58   29   53 1    
    59   30   54 1    
    60   55   57 1    
    61   55  109 nc   
    62   56   69 1    
    63   57   77 ar   
    64   57   60 ar   
    65   58   60 1    
    66   59   67 2    
    67   60   87 ar   
    68   61   76 1    
    69   62   70 1    
    70   63   74 1    
    71   64   81 1    
    72   65   79 ar   
    73   65   71 1    
    74   65   78 ar   
    75   66   82 1    
    76   66   78 1    
    77   67   80 am   BACKBONE|DICT|INTERRES
    78   67   79 1    
    79   68   84 1    
    80   69   83 1    
    81   69   95 1    
    82   69   80 1    
    83   70   89 am   BACKBONE|DICT|INTERRES
    84   70   74 1    
    85   72   77 1    
    86   72  109 nc   
    87   73   83 1    
    88   74   99 1    
    89   74   81 1    
    90   75   86 1    
    91   76   86 1    
    92   76   98 1    
    93   76   83 1    
    94   77   94 ar   
    95   78   88 ar   
    96   79   90 ar   
    97   80   93 1    
    98   81  101 1    
    99   81   84 1    
   100   83  105 1    
   101   84  104 1    
   102   84   85 1    
   103   85   86 1    
   104   85  109 nc   
   105   85  110 1    
   106   86  106 1    
   107   87   96 ar   
   108   87   89 1    
   109   88   92 1    
   110   88   91 ar   
   111   89  103 2    
   112   90   91 ar   
   113   90   97 1    
   114   91  102 1    
   115   92  100 1    
   116   94   96 ar   
   117   94  107 1    
   118   96  108 1    
@<TRIPOS>SUBSTRUCTURE
     1 UNK         1 GROUP             0       ****    0 ROOT    
@<TRIPOS>MOLECULE
209_c2
113   120    1
SMALL
USER_CHARGES


@<TRIPOS>ATOM
      1 C1         -2.6394   -2.9331   -0.8719 C.ar      1 UNK         0.0000 
      2 C2         -1.5997   -2.0996   -0.4649 C.ar      1 UNK         0.0000 
      3 C3         -0.3372   -2.6364   -0.2201 C.ar      1 UNK         0.0000 
      4 O4          0.6904   -1.8125    0.1744 O.3       1 UNK         0.0000 
      5 C5         -0.1192   -4.0020   -0.3832 C.ar      1 UNK         0.0000 
      6 O6          1.1257   -4.5231   -0.1417 O.3       1 UNK         0.0000 
      7 C7         -1.1593   -4.8353   -0.7914 C.ar      1 UNK         0.0000 
      8 C8         -2.4407   -4.3165   -1.0171 C.ar      1 UNK         0.0000 
      9 C9         -3.5329   -5.2626   -1.4683 C.2       1 UNK         0.0000 
     10 O10        -3.2451   -6.2885   -2.1082 O.co2     1 UNK         0.0000 
     11 N11        -4.8305   -5.0072   -1.2130 N.am      1 UNK         0.0000 
     12 C12        -5.5040   -4.0931   -0.3052 C.3       1 UNK         0.0000 
     13 C13        -6.9464   -4.5610   -0.0144 C.3       1 UNK         0.0000 
     14 C14        -7.0884   -5.9163    0.7145 C.3       1 UNK         0.0000 
     15 C15        -8.5624   -6.2478    0.9764 C.3       1 UNK         0.0000 
     16 N16        -8.6958   -7.6954    1.4831 N.4       1 UNK         0.0000 
     17 C17       -10.0909   -8.0147    2.0686 C.3       1 UNK         0.0000 
     18 C18       -10.7789   -9.2035    1.3641 C.3       1 UNK         0.0000 
     19 C19       -11.4139   -8.9279   -0.0168 C.3       1 UNK         0.0000 
     20 N20       -10.4280   -8.6005   -1.0339 N.am      1 UNK         0.0000 
     21 C21       -10.4855   -7.5941   -1.9196 C.2       1 UNK         0.0000 
     22 O22       -11.4870   -6.8899   -2.0470 O.2       1 UNK         0.0000 
     23 C23        -9.1783   -7.2734   -2.6032 C.ar      1 UNK         0.0000 
     24 C24        -7.9852   -7.8231   -2.1034 C.ar      1 UNK         0.0000 
     25 C25        -6.7439   -7.3439   -2.4890 C.ar      1 UNK         0.0000 
     26 O26        -5.7466   -7.8348   -1.8703 O.co2     1 UNK         0.0000 
     27 C27        -6.6729   -6.3681   -3.5040 C.ar      1 UNK         0.0000 
     28 O28        -5.5668   -5.9212   -3.9409 O.co2     1 UNK         0.0000 
     29 C29        -7.8495   -5.8950   -4.0927 C.ar      1 UNK         0.0000 
     30 C30        -9.0975   -6.3223   -3.6270 C.ar      1 UNK         0.0000 
     31 H31        -3.5841   -2.4723   -1.1039 H         1 UNK         0.0000 
     32 H32        -1.7784   -1.0441   -0.3583 H         1 UNK         0.0000 
     33 H33         0.4071   -0.9033    0.2559 H         1 UNK         0.0000 
     34 H34         1.7192   -3.7910    0.0429 H         1 UNK         0.0000 
     35 H35        -0.9527   -5.8865   -0.9411 H         1 UNK         0.0000 
     36 H36        -5.4743   -5.6165   -1.7290 H         1 UNK         0.0000 
     37 H37        -4.9283   -4.0370    0.6252 H         1 UNK         0.0000 
     38 H38        -5.5607   -3.1019   -0.7690 H         1 UNK         0.0000 
     39 H39        -7.4914   -4.6040   -0.9659 H         1 UNK         0.0000 
     40 H40        -7.4316   -3.7906    0.5821 H         1 UNK         0.0000 
     41 H41        -6.6609   -6.7140    0.1175 H         1 UNK         0.0000 
     42 H42        -6.5125   -5.9158    1.6417 H         1 UNK         0.0000 
     43 H43        -9.1684   -6.1992    0.0696 H         1 UNK         0.0000 
     44 H44        -8.9788   -5.5842    1.7377 H         1 UNK         0.0000 
     45 H45       -10.7047   -7.1110    2.0520 H         1 UNK         0.0000 
     46 H46        -9.8827   -8.2623    3.1129 H         1 UNK         0.0000 
     47 H47       -11.6018   -9.5066    2.0110 H         1 UNK         0.0000 
     48 H48       -10.1155  -10.0702    1.3222 H         1 UNK         0.0000 
     49 H49       -12.1187   -8.0969    0.0774 H         1 UNK         0.0000 
     50 H50       -11.9917   -9.7894   -0.3611 H         1 UNK         0.0000 
     51 H51        -9.7345   -9.3032   -1.2572 H         1 UNK         0.0000 
     52 H52        -7.9895   -8.5936   -1.3421 H         1 UNK         0.0000 
     53 H53        -7.7876   -5.1649   -4.8910 H         1 UNK         0.0000 
     54 H54        -9.9835   -5.8603   -4.0281 H         1 UNK         0.0000 
     55 O55        -3.0094   -9.2758   -3.0927 O.co2     1 UNK         0.0000 
     56 H56        -4.3353   -7.7619   -6.9868 H         1 UNK         0.0000 
     57 C57        -3.7122  -10.2437   -3.5393 C.ar      1 UNK         0.0000 
     58 H58        -2.4853  -11.6633   -2.4820 H         1 UNK         0.0000 
     59 O59        -2.7989   -6.9001   -4.8093 O.co2     1 UNK         0.0000 
     60 C60        -3.3423  -11.5350   -3.1450 C.ar      1 UNK         0.0000 
     61 H61        -5.0791  -10.3711   -7.6206 H         1 UNK         0.0000 
     62 H62        -3.2229  -15.8703   -4.0246 H         1 UNK         0.0000 
     63 H63        -4.8184  -14.6176   -6.0228 H         1 UNK         0.0000 
     64 H64        -2.9402  -12.8364   -6.1131 H         1 UNK         0.0000 
     65 C65        -0.0423   -6.4230   -4.1768 C.ar      1 UNK         0.0000 
     66 O66         1.7649   -6.1537   -2.6337 O.3       1 UNK         0.0000 
     67 C67        -1.9719   -6.8391   -5.7386 C.2       1 UNK         0.0000 
     68 H68        -3.1154  -14.7900   -8.4818 H         1 UNK         0.0000 
     69 C69        -3.3763   -8.2706   -7.0988 C.3       1 UNK         0.0000 
     70 N70        -3.5310  -14.9677   -4.3565 N.am      1 UNK         0.0000 
     71 H71        -0.6598   -6.7504   -3.3489 H         1 UNK         0.0000 
     72 O72        -5.2370   -8.9580   -4.8362 O.co2     1 UNK         0.0000 
     73 H73        -3.8770   -8.7358   -9.1306 H         1 UNK         0.0000 
     74 C74        -3.7716  -14.8331   -5.8039 C.3       1 UNK         0.0000 
     75 H75        -4.8313  -11.3783   -9.7651 H         1 UNK         0.0000 
     76 C76        -4.0434  -10.5560   -7.9244 C.3       1 UNK         0.0000 
     77 C77        -4.8253  -10.0793   -4.3998 C.ar      1 UNK         0.0000 
     78 C78         1.2845   -6.0768   -3.9154 C.ar      1 UNK         0.0000 
     79 C79        -0.5523   -6.3906   -5.4842 C.ar      1 UNK         0.0000 
     80 N80        -2.2602   -7.3384   -6.9570 N.am      1 UNK         0.0000 
     81 C81        -2.8342  -13.8361   -6.5335 C.3       1 UNK         0.0000 
     82 H82         2.6621   -5.8150   -2.5925 H         1 UNK         0.0000 
     83 C83        -3.3662   -9.2187   -8.2974 C.3       1 UNK         0.0000 
     84 C84        -3.0024  -13.7852   -8.0660 C.3       1 UNK         0.0000 
     85 N85        -4.2644  -13.0014   -8.5083 N.4       1 UNK         0.0000 
     86 C86        -4.0202  -11.5777   -9.0588 C.3       1 UNK         0.0000 
     87 C87        -4.0240  -12.6573   -3.6405 C.ar      1 UNK         0.0000 
     88 C88         2.1173   -5.6682   -4.9567 C.ar      1 UNK         0.0000 
     89 C89        -3.4566  -14.0323   -3.3875 C.2       1 UNK         0.0000 
     90 C90         0.3041   -5.9896   -6.5249 C.ar      1 UNK         0.0000 
     91 C91         1.6254   -5.6279   -6.2611 C.ar      1 UNK         0.0000 
     92 O92         3.4220   -5.3154   -4.7054 O.3       1 UNK         0.0000 
     93 H93        -1.7129   -7.1080   -7.7712 H         1 UNK         0.0000 
     94 C94        -5.5519  -11.1970   -4.8131 C.ar      1 UNK         0.0000 
     95 H95        -3.2415   -8.9284   -6.2411 H         1 UNK         0.0000 
     96 C96        -5.1751  -12.4730   -4.4191 C.ar      1 UNK         0.0000 
     97 H97        -0.0361   -5.9582   -7.5465 H         1 UNK         0.0000 
     98 H98        -3.5412  -10.9628   -7.0445 H         1 UNK         0.0000 
     99 H99        -3.6409  -15.8288   -6.2416 H         1 UNK         0.0000 
    100 H100        3.8961   -5.0968   -5.5061 H         1 UNK         0.0000 
    101 H101       -1.8057  -14.1270   -6.3130 H         1 UNK         0.0000 
    102 H102        2.2614   -5.3218   -7.0714 H         1 UNK         0.0000 
    103 O103       -2.8936  -14.3194   -2.3417 O.2       1 UNK         0.0000 
    104 H104       -2.1470  -13.3159   -8.5543 H         1 UNK         0.0000 
    105 H105       -2.3412   -9.4148   -8.6084 H         1 UNK         0.0000 
    106 H106       -3.0739  -11.5933   -9.6042 H         1 UNK         0.0000 
    107 H107       -6.4183  -11.0739   -5.4494 H         1 UNK         0.0000 
    108 H108       -5.7733  -13.3031   -4.7532 H         1 UNK         0.0000 
    109 Fe109      -4.3381   -7.6437   -3.4647 Fe        1 UNK         0.0000 
    110 H110       -7.9895   -7.8402    2.1941 H         1 UNK         0.0000 
    111 H111       -8.4715   -8.3285    0.7216 H         1 UNK         0.0000 
    112 H112       -4.9395  -12.9562   -7.7522 H         1 UNK         0.0000 
    113 H113       -4.6936  -13.5240   -9.2606 H         1 UNK         0.0000 
@<TRIPOS>BOND
     1    1    2 ar   
     2    1    8 ar   
     3    1   31 1    
     4    2    3 ar   
     5    2   32 1    
     6    3    4 1    
     7    3    5 ar   
     8    4   33 1    
     9    5    6 1    
    10    5    7 ar   
    11    6   34 1    
    12    7    8 ar   
    13    7   35 1    
    14    8    9 1    
    15    9   10 2    
    16    9   11 am   BACKBONE|DICT|INTERRES
    17   10  109 nc   
    18   11   12 1    
    19   11   36 1    
    20   12   13 1    
    21   12   37 1    
    22   12   38 1    
    23   13   14 1    
    24   13   39 1    
    25   13   40 1    
    26   14   15 1    
    27   14   41 1    
    28   14   42 1    
    29   15   16 1    
    30   15   43 1    
    31   15   44 1    
    32   16   17 1    
    33   16  110 1    
    34   16  111 1    
    35   17   18 1    
    36   17   45 1    
    37   17   46 1    
    38   18   19 1    
    39   18   47 1    
    40   18   48 1    
    41   19   20 1    
    42   19   49 1    
    43   19   50 1    
    44   20   21 am   BACKBONE|DICT|INTERRES
    45   20   51 1    
    46   21   22 2    
    47   21   23 1    
    48   23   24 ar   
    49   23   30 ar   
    50   24   25 ar   
    51   24   52 1    
    52   25   26 1    
    53   25   27 ar   
    54   26  109 nc   
    55   27   28 1    
    56   27   29 ar   
    57   28  109 nc   
    58   29   30 ar   
    59   29   53 1    
    60   30   54 1    
    61   55   57 1    
    62   55  109 nc   
    63   56   69 1    
    64   57   77 ar   
    65   57   60 ar   
    66   58   60 1    
    67   59   67 2    
    68   59  109 nc   
    69   60   87 ar   
    70   61   76 1    
    71   62   70 1    
    72   63   74 1    
    73   64   81 1    
    74   65   79 ar   
    75   65   71 1    
    76   65   78 ar   
    77   66   82 1    
    78   66   78 1    
    79   67   80 am   BACKBONE|DICT|INTERRES
    80   67   79 1    
    81   68   84 1    
    82   69   83 1    
    83   69   95 1    
    84   69   80 1    
    85   70   89 am   BACKBONE|DICT|INTERRES
    86   70   74 1    
    87   72   77 1    
    88   72  109 nc   
    89   73   83 1    
    90   74   99 1    
    91   74   81 1    
    92   75   86 1    
    93   76   86 1    
    94   76   98 1    
    95   76   83 1    
    96   77   94 ar   
    97   78   88 ar   
    98   79   90 ar   
    99   80   93 1    
   100   81  101 1    
   101   81   84 1    
   102   83  105 1    
   103   84  104 1    
   104   84   85 1    
   105   85  112 1    
   106   85  113 1    
   107   85   86 1    
   108   86  106 1    
   109   87   96 ar   
   110   87   89 1    
   111   88   92 1    
   112   88   91 ar   
   113   89  103 2    
   114   90   91 ar   
   115   90   97 1    
   116   91  102 1    
   117   92  100 1    
   118   94   96 ar   
   119   94  107 1    
   120   96  108 1    
@<TRIPOS>SUBSTRUCTURE
     1 UNK         1 GROUP             0       ****    0 ROOT    
@<TRIPOS>MOLECULE
210_c1
105   114    1
SMALL
USER_CHARGES


@<TRIPOS>ATOM
      1 O1         17.7404   10.1994  -18.0162 O.co2     1 UNK         0.0000 
      2 C2         16.7022   10.9905  -18.5229 C.3       1 UNK         0.0000 
      3 C3         15.2881   10.4244  -18.3212 C.3       1 UNK         0.0000 
      4 C4         15.0869    9.0365  -18.9111 C.2       1 UNK         0.0000 
      5 C5         14.5096    7.9739  -18.3213 C.2       1 UNK         0.0000 
      6 C6         13.9062    7.9898  -16.9926 C.2       1 UNK         0.0000 
      7 C7         13.6526    6.9159  -16.2094 C.2       1 UNK         0.0000 
      8 C8         14.0311    5.4987  -16.6255 C.3       1 UNK         0.0000 
      9 C9         13.0334    7.1600  -14.9029 C.2       1 UNK         0.0000 
     10 C10        12.9433    6.2636  -13.9016 C.2       1 UNK         0.0000 
     11 C11        12.2985    6.5053  -12.5469 C.3       1 UNK         0.0000 
     12 C12        12.8846    7.6466  -11.6799 C.3       1 UNK         0.0000 
     13 C13        12.1002    8.9785  -11.7497 C.3       1 UNK         0.0000 
     14 H14        11.1668    8.9481  -11.1864 H         1 UNK         0.0000 
     15 O15        11.9844    9.6423  -12.9829 O.3       1 UNK         0.0000 
     16 C16        12.7354   10.3263  -12.0117 C.3       1 UNK         0.0000 
     17 H17        12.2348   11.1654  -11.5234 H         1 UNK         0.0000 
     18 C18        14.2368   10.5903  -12.3430 C.3       1 UNK         0.0000 
     19 H19        14.8182   10.3020  -11.4633 H         1 UNK         0.0000 
     20 C20        14.4439   12.1112  -12.5169 C.3       1 UNK         0.0000 
     21 C21        14.7851    9.7999  -13.5787 C.3       1 UNK         0.0000 
     22 C22        16.2314   10.0707  -14.0737 C.3       1 UNK         0.0000 
     23 H23        16.1908   11.0868  -14.4713 H         1 UNK         0.0000 
     24 O24        16.5762    9.2251  -15.2117 O.3       1 UNK         0.0000 
     25 C25        17.4163   10.0118  -13.0449 C.3       1 UNK         0.0000 
     26 H26        17.3151   10.7472  -12.2414 H         1 UNK         0.0000 
     27 O27        18.5892   10.2930  -13.7865 O.co2     1 UNK         0.0000 
     28 C28        17.5503    8.5281  -12.5228 C.3       1 UNK         0.0000 
     29 C29        17.9026    7.6116  -13.7166 C.3       1 UNK         0.0000 
     30 H30        18.8334    8.0882  -13.9386 H         1 UNK         0.0000 
     31 O31        18.4921    6.2901  -13.5237 O.3       1 UNK         0.0000 
     32 C32        16.8988    7.7883  -14.9424 C.3       1 UNK         0.0000 
     33 H33        15.9814    7.2385  -14.7306 H         1 UNK         0.0000 
     34 C34        17.5592    7.2115  -16.2043 C.3       1 UNK         0.0000 
     35 H35        16.8397    7.1050  -17.0252 H         1 UNK         0.0000 
     36 O36        18.5928    8.0861  -16.5485 O.co2     1 UNK         0.0000 
     37 C37        18.2957    5.8779  -15.8933 C.3       1 UNK         0.0000 
     38 C38        19.2858    5.9657  -14.6795 C.3       1 UNK         0.0000 
     39 O39        20.3128    6.9539  -14.8344 O.3       1 UNK         0.0000 
     40 C40        21.2071    6.8323  -15.9111 C.3       1 UNK         0.0000 
     41 H41        20.7135    6.5625  -16.8425 H         1 UNK         0.0000 
     42 C42        22.1161    5.6587  -15.4587 C.3       1 UNK         0.0000 
     43 C43        21.3061    4.4841  -14.8627 C.2       1 UNK         0.0000 
     44 C44        20.0168    4.6517  -14.4686 C.2       1 UNK         0.0000 
     45 C45        22.0284    3.1777  -14.6061 C.3       1 UNK         0.0000 
     46 C46        21.9152    8.2207  -16.1371 C.3       1 UNK         0.0000 
     47 C47        21.2064    9.3638  -16.9754 C.3       1 UNK         0.0000 
     48 H48        20.6874    8.9093  -17.8204 H         1 UNK         0.0000 
     49 O49        20.2667   10.2477  -16.2723 O.3       1 UNK         0.0000 
     50 C50        20.3321   11.5801  -16.8181 C.3       1 UNK         0.0000 
     51 H51        19.8524   11.6008  -17.8023 H         1 UNK         0.0000 
     52 C52        21.8299   11.7344  -16.9934 C.3       1 UNK         0.0000 
     53 C53        22.2022   10.3783  -17.5875 C.3       1 UNK         0.0000 
     54 C54        19.5001   12.5649  -15.9373 C.3       1 UNK         0.0000 
     55 H55        19.9865   12.6197  -14.9654 H         1 UNK         0.0000 
     56 O56        18.1673   12.1321  -15.8057 O.co2     1 UNK         0.0000 
     57 C57        19.4006   13.9679  -16.5118 C.2       1 UNK         0.0000 
     58 C58        19.7528   15.1631  -15.9657 C.2       1 UNK         0.0000 
     59 C59        20.3758   15.3431  -14.5886 C.3       1 UNK         0.0000 
     60 C60        19.5053   16.4565  -16.7227 C.3       1 UNK         0.0000 
     61 H61        16.8369   11.1020  -19.6016 H         1 UNK         0.0000 
     62 H62        16.7315   12.0169  -18.1521 H         1 UNK         0.0000 
     63 H63        15.0505   10.4306  -17.2585 H         1 UNK         0.0000 
     64 H64        14.5605   11.0850  -18.7922 H         1 UNK         0.0000 
     65 H65        15.4946    8.8962  -19.8990 H         1 UNK         0.0000 
     66 H66        14.4996    7.0630  -18.8930 H         1 UNK         0.0000 
     67 H67        13.6438    8.9631  -16.6002 H         1 UNK         0.0000 
     68 H68        14.5597    5.4164  -17.5741 H         1 UNK         0.0000 
     69 H69        13.1384    4.8787  -16.6529 H         1 UNK         0.0000 
     70 H70        14.6827    5.0631  -15.8684 H         1 UNK         0.0000 
     71 H71        12.6203    8.1386  -14.7186 H         1 UNK         0.0000 
     72 H72        13.3550    5.2765  -14.0472 H         1 UNK         0.0000 
     73 H73        12.4401    5.5687  -12.0015 H         1 UNK         0.0000 
     74 H74        11.2242    6.6276  -12.6801 H         1 UNK         0.0000 
     75 H75        12.8199    7.3279  -10.6322 H         1 UNK         0.0000 
     76 H76        13.9579    7.7448  -11.8232 H         1 UNK         0.0000 
     77 H77        15.4957   12.3579  -12.6612 H         1 UNK         0.0000 
     78 H78        14.1199   12.6671  -11.6342 H         1 UNK         0.0000 
     79 H79        13.9003   12.4908  -13.3826 H         1 UNK         0.0000 
     80 H80        14.1193   10.0034  -14.4205 H         1 UNK         0.0000 
     81 H81        14.6981    8.7345  -13.4250 H         1 UNK         0.0000 
     82 H82        16.6321    8.1877  -12.0461 H         1 UNK         0.0000 
     83 H83        18.3690    8.4898  -11.8031 H         1 UNK         0.0000 
     84 H84        18.8184    5.5151  -16.7770 H         1 UNK         0.0000 
     85 H85        17.5515    5.1213  -15.6408 H         1 UNK         0.0000 
     86 H86        22.7872    6.0123  -14.6732 H         1 UNK         0.0000 
     87 H87        22.7535    5.3228  -16.2767 H         1 UNK         0.0000 
     88 H88        19.4547    3.8399  -14.0181 H         1 UNK         0.0000 
     89 H89        23.0866    3.2459  -14.8621 H         1 UNK         0.0000 
     90 H90        21.5808    2.3897  -15.2125 H         1 UNK         0.0000 
     91 H91        21.9499    2.8913  -13.5556 H         1 UNK         0.0000 
     92 H92        22.8220    7.9814  -16.6941 H         1 UNK         0.0000 
     93 H93        22.2574    8.6252  -15.1824 H         1 UNK         0.0000 
     94 H94        22.1021   12.5904  -17.6165 H         1 UNK         0.0000 
     95 H95        22.3204   11.9285  -16.0383 H         1 UNK         0.0000 
     96 H96        22.0105   10.4703  -18.6600 H         1 UNK         0.0000 
     97 H97        23.2555   10.1363  -17.4376 H         1 UNK         0.0000 
     98 H98        18.9626   13.9817  -17.5001 H         1 UNK         0.0000 
     99 H99        19.6947   14.9742  -13.8196 H         1 UNK         0.0000 
    100 H100       20.5878   16.3892  -14.3780 H         1 UNK         0.0000 
    101 H101       21.3053   14.7799  -14.5104 H         1 UNK         0.0000 
    102 H102       19.0076   16.2759  -17.6752 H         1 UNK         0.0000 
    103 H103       20.4410   16.9726  -16.9298 H         1 UNK         0.0000 
    104 H104       18.8572   17.1160  -16.1441 H         1 UNK         0.0000 
    105 Fe105      18.2874   10.0341  -15.9619 Fe        1 UNK         0.0000 
@<TRIPOS>BOND
     1    1    2 1    
     2    1  105 nc   
     3    2    3 1    
     4    2   61 1    
     5    2   62 1    
     6    3    4 1    
     7    3   63 1    
     8    3   64 1    
     9    4    5 2    
    10    4   65 1    
    11    5    6 1    
    12    5   66 1    
    13    6    7 2    
    14    6   67 1    
    15    7    8 1    
    16    7    9 1    
    17    8   68 1    
    18    8   69 1    
    19    8   70 1    
    20    9   10 2    
    21    9   71 1    
    22   10   11 1    
    23   10   72 1    
    24   11   12 1    
    25   11   73 1    
    26   11   74 1    
    27   12   75 1    
    28   12   76 1    
    29   12   13 1    
    30   13   15 1    
    31   13   16 1    
    32   13   14 1    
    33   15   16 1    
    34   16   17 1    
    35   16   18 1    
    36   18   20 1    
    37   18   21 1    
    38   18   19 1    
    39   20   77 1    
    40   20   78 1    
    41   20   79 1    
    42   21   80 1    
    43   21   81 1    
    44   21   22 1    
    45   22   24 1    
    46   22   23 1    
    47   22   25 1    
    48   24   32 1    
    49   24  105 nc   
    50   25   26 1    
    51   25   27 1    
    52   25   28 1    
    53   27  105 nc   
    54   28   29 1    
    55   28   82 1    
    56   28   83 1    
    57   29   30 1    
    58   29   31 1    
    59   29   32 1    
    60   31   38 1    
    61   32   33 1    
    62   32   34 1    
    63   34   37 1    
    64   34   36 1    
    65   34   35 1    
    66   36  105 nc   
    67   37   38 1    
    68   37   84 1    
    69   37   85 1    
    70   38   39 1    
    71   38   44 1    
    72   39   40 1    
    73   40   42 1    
    74   40   46 1    
    75   40   41 1    
    76   42   43 1    
    77   42   86 1    
    78   42   87 1    
    79   43   44 2    
    80   43   45 1    
    81   44   88 1    
    82   45   89 1    
    83   45   90 1    
    84   45   91 1    
    85   46   92 1    
    86   46   93 1    
    87   46   47 1    
    88   47   49 1    
    89   47   53 1    
    90   47   48 1    
    91   49   50 1    
    92   49  105 nc   
    93   50   52 1    
    94   50   54 1    
    95   50   51 1    
    96   52   53 1    
    97   52   94 1    
    98   52   95 1    
    99   53   96 1    
   100   53   97 1    
   101   54   57 1    
   102   54   56 1    
   103   54   55 1    
   104   56  105 nc   
   105   57   58 2    
   106   57   98 1    
   107   58   59 1    
   108   58   60 1    
   109   59   99 1    
   110   59  100 1    
   111   59  101 1    
   112   60  102 1    
   113   60  103 1    
   114   60  104 1    
@<TRIPOS>SUBSTRUCTURE
     1 UNK         1 GROUP             0       ****    0 ROOT    
@<TRIPOS>MOLECULE
214_c1
105   114    1
SMALL
USER_CHARGES


@<TRIPOS>ATOM
      1 O1         17.1372   -2.7152   -7.9028 O.co2     1 UNK         0.0000 
      2 C2         16.8068   -4.0742   -7.9050 C.3       1 UNK         0.0000 
      3 C3         16.6188   -4.5698   -6.4856 C.3       1 UNK         0.0000 
      4 C4         15.9810   -5.9341   -6.2780 C.2       1 UNK         0.0000 
      5 C5         15.6184   -6.3810   -5.0609 C.2       1 UNK         0.0000 
      6 C6         15.8632   -5.5914   -3.8586 C.2       1 UNK         0.0000 
      7 C7         15.4337   -5.8433   -2.6089 C.2       1 UNK         0.0000 
      8 C8         14.5107   -7.0161   -2.3384 C.3       1 UNK         0.0000 
      9 C9         15.8652   -4.9558   -1.5242 C.2       1 UNK         0.0000 
     10 C10        17.1130   -4.4788   -1.3008 C.2       1 UNK         0.0000 
     11 C11        18.3815   -4.7975   -2.0859 C.3       1 UNK         0.0000 
     12 C12        19.6928   -4.3263   -1.4197 C.3       1 UNK         0.0000 
     13 C13        20.0701   -2.8252   -1.4824 C.3       1 UNK         0.0000 
     14 H14        20.7459   -2.5271   -0.6761 H         1 UNK         0.0000 
     15 O15        19.0995   -1.8773   -1.8356 O.3       1 UNK         0.0000 
     16 C16        20.1789   -1.9905   -2.7415 C.3       1 UNK         0.0000 
     17 H17        20.9128   -1.1854   -2.6960 H         1 UNK         0.0000 
     18 C18        19.7934   -2.3921   -4.1952 C.3       1 UNK         0.0000 
     19 H19        18.7186   -2.5878   -4.2102 H         1 UNK         0.0000 
     20 C20        20.5285   -3.6622   -4.6728 C.3       1 UNK         0.0000 
     21 C21        20.0589   -1.1881   -5.1497 C.3       1 UNK         0.0000 
     22 C22        19.2935   -1.1614   -6.5155 C.3       1 UNK         0.0000 
     23 H23        18.2341   -1.1998   -6.2500 H         1 UNK         0.0000 
     24 O24        19.5452   -2.2646   -7.4181 O.3       1 UNK         0.0000 
     25 C25        19.4761    0.1089   -7.4141 C.3       1 UNK         0.0000 
     26 H26        19.2262    1.0157   -6.8612 H         1 UNK         0.0000 
     27 O27        18.6001    0.0394   -8.5301 O.co2     1 UNK         0.0000 
     28 C28        20.9769    0.1030   -7.8863 C.3       1 UNK         0.0000 
     29 C29        21.3323   -1.2296   -8.6015 C.3       1 UNK         0.0000 
     30 H30        20.7278   -1.1416   -9.4775 H         1 UNK         0.0000 
     31 O31        22.6387   -1.3577   -9.1529 O.3       1 UNK         0.0000 
     32 C32        20.8978   -2.5098   -7.8209 C.3       1 UNK         0.0000 
     33 H33        21.5520   -2.7107   -6.9726 H         1 UNK         0.0000 
     34 C34        20.8338   -3.7217   -8.7700 C.3       1 UNK         0.0000 
     35 H35        20.6314   -4.6413   -8.2156 H         1 UNK         0.0000 
     36 O36        19.7952   -3.5724   -9.7205 O.co2     1 UNK         0.0000 
     37 C37        22.2179   -3.7811   -9.4843 C.3       1 UNK         0.0000 
     38 C38        22.6838   -2.4183  -10.1153 C.3       1 UNK         0.0000 
     39 O39        21.8314   -2.2152  -11.2309 O.3       1 UNK         0.0000 
     40 C40        22.0831   -1.1579  -12.1352 C.3       1 UNK         0.0000 
     41 H41        21.4617   -1.3951  -12.9949 H         1 UNK         0.0000 
     42 C42        23.5414   -1.1627  -12.6550 C.3       1 UNK         0.0000 
     43 C43        24.5228   -1.8757  -11.7434 C.2       1 UNK         0.0000 
     44 C44        24.1175   -2.4678  -10.6006 C.2       1 UNK         0.0000 
     45 C45        25.9791   -1.9348  -12.1605 C.3       1 UNK         0.0000 
     46 C46        21.5392    0.1843  -11.5989 C.3       1 UNK         0.0000 
     47 C47        19.9864    0.2799  -11.3948 C.3       1 UNK         0.0000 
     48 H48        19.7725    0.9961  -10.5945 H         1 UNK         0.0000 
     49 O49        19.2964   -0.9851  -11.1107 O.3       1 UNK         0.0000 
     50 C50        18.4706   -1.3711  -12.2365 C.3       1 UNK         0.0000 
     51 H51        18.8037   -2.3535  -12.5653 H         1 UNK         0.0000 
     52 C52        18.7778   -0.3678  -13.3556 C.3       1 UNK         0.0000 
     53 C53        19.2653    0.8571  -12.6256 C.3       1 UNK         0.0000 
     54 C54        17.0060   -1.4370  -11.7268 C.3       1 UNK         0.0000 
     55 H55        16.3984   -1.8372  -12.5356 H         1 UNK         0.0000 
     56 O56        16.9609   -2.2363  -10.5986 O.co2     1 UNK         0.0000 
     57 C57        16.4063   -0.0950  -11.2907 C.2       1 UNK         0.0000 
     58 C58        15.2867    0.5570  -11.6854 C.2       1 UNK         0.0000 
     59 C59        14.9654    1.8962  -11.0538 C.3       1 UNK         0.0000 
     60 C60        14.2551    0.1022  -12.7164 C.3       1 UNK         0.0000 
     61 H61        15.8955   -4.2629   -8.4799 H         1 UNK         0.0000 
     62 H62        17.5581   -4.7028   -8.3871 H         1 UNK         0.0000 
     63 H63        15.9813   -3.8317   -5.9874 H         1 UNK         0.0000 
     64 H64        17.5809   -4.5465   -5.9699 H         1 UNK         0.0000 
     65 H65        15.7985   -6.5552   -7.1477 H         1 UNK         0.0000 
     66 H66        15.1456   -7.3461   -4.9866 H         1 UNK         0.0000 
     67 H67        16.4569   -4.7055   -3.9917 H         1 UNK         0.0000 
     68 H68        13.6237   -6.9257   -2.9681 H         1 UNK         0.0000 
     69 H69        14.1931   -7.0911   -1.3021 H         1 UNK         0.0000 
     70 H70        14.9865   -7.9458   -2.6504 H         1 UNK         0.0000 
     71 H71        15.0975   -4.6366   -0.8363 H         1 UNK         0.0000 
     72 H72        17.2492   -3.8086   -0.4641 H         1 UNK         0.0000 
     73 H73        18.4196   -5.8869   -2.1804 H         1 UNK         0.0000 
     74 H74        18.3216   -4.4130   -3.0965 H         1 UNK         0.0000 
     75 H75        20.5408   -4.8872   -1.8183 H         1 UNK         0.0000 
     76 H76        19.6610   -4.6275   -0.3716 H         1 UNK         0.0000 
     77 H77        20.1274   -4.0006   -5.6267 H         1 UNK         0.0000 
     78 H78        20.4064   -4.5116   -4.0068 H         1 UNK         0.0000 
     79 H79        21.6000   -3.4945   -4.7896 H         1 UNK         0.0000 
     80 H80        21.1344   -1.0990   -5.3046 H         1 UNK         0.0000 
     81 H81        19.7615   -0.2872   -4.6120 H         1 UNK         0.0000 
     82 H82        21.6253    0.2432   -7.0225 H         1 UNK         0.0000 
     83 H83        21.1213    0.9479   -8.5574 H         1 UNK         0.0000 
     84 H84        22.2016   -4.5236  -10.2796 H         1 UNK         0.0000 
     85 H85        22.9740   -4.0891   -8.7603 H         1 UNK         0.0000 
     86 H86        23.8861   -0.1541  -12.8804 H         1 UNK         0.0000 
     87 H87        23.5717   -1.6934  -13.6045 H         1 UNK         0.0000 
     88 H88        24.8333   -2.9434   -9.9454 H         1 UNK         0.0000 
     89 H89        26.1441   -1.4321  -13.1110 H         1 UNK         0.0000 
     90 H90        26.3111   -2.9692  -12.2677 H         1 UNK         0.0000 
     91 H91        26.6067   -1.4514  -11.4112 H         1 UNK         0.0000 
     92 H92        21.8488    0.9829  -12.2663 H         1 UNK         0.0000 
     93 H93        22.0454    0.4389  -10.6744 H         1 UNK         0.0000 
     94 H94        17.9479   -0.1740  -14.0388 H         1 UNK         0.0000 
     95 H95        19.5823   -0.7466  -13.9834 H         1 UNK         0.0000 
     96 H96        18.4106    1.4604  -12.3114 H         1 UNK         0.0000 
     97 H97        19.8698    1.5342  -13.2276 H         1 UNK         0.0000 
     98 H98        16.9800    0.4068  -10.5258 H         1 UNK         0.0000 
     99 H99        15.7993    2.5827  -11.2217 H         1 UNK         0.0000 
    100 H100       14.8282    1.7611   -9.9754 H         1 UNK         0.0000 
    101 H101       14.0569    2.3407  -11.4645 H         1 UNK         0.0000 
    102 H102       14.2197    0.8029  -13.5500 H         1 UNK         0.0000 
    103 H103       13.2650    0.0651  -12.2562 H         1 UNK         0.0000 
    104 H104       14.4539   -0.8879  -13.1212 H         1 UNK         0.0000 
    105 Fe105      18.5624   -1.9371   -9.2435 Fe        1 UNK         0.0000 
@<TRIPOS>BOND
     1    1    2 1    
     2    1  105 nc   
     3    2    3 1    
     4    2   61 1    
     5    2   62 1    
     6    3    4 1    
     7    3   63 1    
     8    3   64 1    
     9    4    5 2    
    10    4   65 1    
    11    5    6 1    
    12    5   66 1    
    13    6    7 2    
    14    6   67 1    
    15    7    8 1    
    16    7    9 1    
    17    8   68 1    
    18    8   69 1    
    19    8   70 1    
    20    9   10 2    
    21    9   71 1    
    22   10   11 1    
    23   10   72 1    
    24   11   12 1    
    25   11   73 1    
    26   11   74 1    
    27   12   75 1    
    28   12   76 1    
    29   12   13 1    
    30   13   15 1    
    31   13   16 1    
    32   13   14 1    
    33   15   16 1    
    34   16   17 1    
    35   16   18 1    
    36   18   20 1    
    37   18   21 1    
    38   18   19 1    
    39   20   77 1    
    40   20   78 1    
    41   20   79 1    
    42   21   80 1    
    43   21   81 1    
    44   21   22 1    
    45   22   24 1    
    46   22   23 1    
    47   22   25 1    
    48   24   32 1    
    49   24  105 nc   
    50   25   26 1    
    51   25   27 1    
    52   25   28 1    
    53   27  105 nc   
    54   28   29 1    
    55   28   82 1    
    56   28   83 1    
    57   29   30 1    
    58   29   31 1    
    59   29   32 1    
    60   31   38 1    
    61   32   33 1    
    62   32   34 1    
    63   34   37 1    
    64   34   36 1    
    65   34   35 1    
    66   36  105 nc   
    67   37   38 1    
    68   37   84 1    
    69   37   85 1    
    70   38   39 1    
    71   38   44 1    
    72   39   40 1    
    73   40   42 1    
    74   40   46 1    
    75   40   41 1    
    76   42   43 1    
    77   42   86 1    
    78   42   87 1    
    79   43   44 2    
    80   43   45 1    
    81   44   88 1    
    82   45   89 1    
    83   45   90 1    
    84   45   91 1    
    85   46   92 1    
    86   46   93 1    
    87   46   47 1    
    88   47   49 1    
    89   47   53 1    
    90   47   48 1    
    91   49   50 1    
    92   49  105 nc   
    93   50   52 1    
    94   50   54 1    
    95   50   51 1    
    96   52   53 1    
    97   52   94 1    
    98   52   95 1    
    99   53   96 1    
   100   53   97 1    
   101   54   57 1    
   102   54   56 1    
   103   54   55 1    
   104   56  105 nc   
   105   57   58 2    
   106   57   98 1    
   107   58   59 1    
   108   58   60 1    
   109   59   99 1    
   110   59  100 1    
   111   59  101 1    
   112   60  102 1    
   113   60  103 1    
   114   60  104 1    
@<TRIPOS>SUBSTRUCTURE
     1 UNK         1 GROUP             0       ****    0 ROOT    
@<TRIPOS>MOLECULE
217_c1
71   80    1
SMALL
USER_CHARGES


@<TRIPOS>ATOM
      1 O1          1.6748   -0.3043    2.9298 O.co2     1 UNK         0.0000 
      2 C2          0.8114    0.2888    3.6753 C.2       1 UNK         0.0000 
      3 O3         -0.0997    0.9820    3.1691 O.co2     1 UNK         0.0000 
      4 C4          0.7917    0.1678    5.2551 C.3       1 UNK         0.0000 
      5 H5          0.1646   -0.6944    5.4924 H         1 UNK         0.0000 
      6 C6          0.1707    1.3777    5.9936 C.3       1 UNK         0.0000 
      7 S7          1.5652    2.4083    6.5309 S.3       1 UNK         0.0000 
      8 C8          2.8269    1.2013    6.0131 C.3       1 UNK         0.0000 
      9 H9          3.5803    1.1410    6.7984 H         1 UNK         0.0000 
     10 N10         2.1264   -0.0580    5.8451 N.3       1 UNK         0.0000 
     11 C11         2.1550   -0.8939    7.0452 C.3       1 UNK         0.0000 
     12 C12         3.5095    1.5883    4.6877 C.3       1 UNK         0.0000 
     13 H13         2.7219    1.9035    3.9961 H         1 UNK         0.0000 
     14 N14         4.2352    0.4719    4.0369 N.pl3     1 UNK         0.0000 
     15 C15         5.4328    0.8903    3.8295 C.2       1 UNK         0.0000 
     16 S16         6.0187    2.2135    4.9103 S.3       1 UNK         0.0000 
     17 C17         4.3778    2.8553    4.8123 C.3       1 UNK         0.0000 
     18 C18         6.2595    0.4833    2.6737 C.ar      1 UNK         0.0000 
     19 C19         5.6800   -0.1096    1.5057 C.ar      1 UNK         0.0000 
     20 O20         4.4636   -0.5535    1.4360 O.co2     1 UNK         0.0000 
     21 C21         6.4704   -0.2374    0.3605 C.ar      1 UNK         0.0000 
     22 C22         7.8034    0.1850    0.3397 C.ar      1 UNK         0.0000 
     23 C23         8.3799    0.7301    1.4799 C.ar      1 UNK         0.0000 
     24 C24         7.6196    0.8739    2.6364 C.ar      1 UNK         0.0000 
     25 H25        -0.3446    1.0443    6.9005 H         1 UNK         0.0000 
     26 H26        -0.5380    1.9658    5.4096 H         1 UNK         0.0000 
     27 H27         3.1457   -1.3536    7.1313 H         1 UNK         0.0000 
     28 H28         1.4304   -1.7043    6.9614 H         1 UNK         0.0000 
     29 H29         1.9339   -0.3248    7.9524 H         1 UNK         0.0000 
     30 H30         4.3441    3.4750    3.9046 H         1 UNK         0.0000 
     31 H31         4.1596    3.4860    5.6806 H         1 UNK         0.0000 
     32 H32         6.0328   -0.6827   -0.5249 H         1 UNK         0.0000 
     33 H33         8.3804    0.1044   -0.5703 H         1 UNK         0.0000 
     34 H34         9.3988    1.0981    1.4465 H         1 UNK         0.0000 
     35 H35         8.1052    1.3661    3.4773 H         1 UNK         0.0000 
     36 H36         2.7465   -6.2915    1.4293 H         1 UNK         0.0000 
     37 O37         1.1306   -3.8892    5.6135 O.co2     1 UNK         0.0000 
     38 H38         1.9436   -4.7069    2.7678 H         1 UNK         0.0000 
     39 C39         2.2748   -5.4746    0.8673 C.3       1 UNK         0.0000 
     40 H40        -0.7595   -5.0012    4.4183 H         1 UNK         0.0000 
     41 C41         1.9493   -4.2688    1.7635 C.3       1 UNK         0.0000 
     42 S42         3.4941   -4.8726   -0.2502 S.3       1 UNK         0.0000 
     43 C43         1.2307   -3.1109    4.6353 C.2       1 UNK         0.0000 
     44 S44        -0.7343   -4.9634    2.0061 S.3       1 UNK         0.0000 
     45 H45         1.4225   -5.8711    0.3095 H         1 UNK         0.0000 
     46 C46        -0.9593   -4.2455    3.6594 C.3       1 UNK         0.0000 
     47 O47         2.2867   -2.4026    4.4674 O.co2     1 UNK         0.0000 
     48 N48         3.0275   -3.2483    1.7640 N.pl3     1 UNK         0.0000 
     49 C49         3.9853   -3.7289    1.0512 C.2       1 UNK         0.0000 
     50 C50         0.5196   -3.7381    1.5197 C.3       1 UNK         0.0000 
     51 C51        -0.0515   -2.9883    3.7228 C.3       1 UNK         0.0000 
     52 N52         0.2364   -2.5710    2.3341 N.3       1 UNK         0.0000 
     53 C53         5.4292   -3.5209    1.3190 C.ar      1 UNK         0.0000 
     54 O54         5.1762   -2.4382    3.4517 O.co2     1 UNK         0.0000 
     55 H55        -2.0144   -3.9592    3.7466 H         1 UNK         0.0000 
     56 C56         5.9151   -3.0154    2.5657 C.ar      1 UNK         0.0000 
     57 C57         6.3703   -4.0124    0.3835 C.ar      1 UNK         0.0000 
     58 C58         7.2786   -3.1138    2.8516 C.ar      1 UNK         0.0000 
     59 C59         7.7273   -4.0695    0.6813 C.ar      1 UNK         0.0000 
     60 C60         8.1810   -3.6380    1.9214 C.ar      1 UNK         0.0000 
     61 H61         6.0691   -4.4156   -0.5800 H         1 UNK         0.0000 
     62 H62         7.6433   -2.7602    3.8099 H         1 UNK         0.0000 
     63 H63         0.3923   -3.5199    0.4591 H         1 UNK         0.0000 
     64 H64         8.4188   -4.5051   -0.0300 H         1 UNK         0.0000 
     65 H65        -0.6503   -2.2063    4.1960 H         1 UNK         0.0000 
     66 H66         9.2271   -3.7241    2.1705 H         1 UNK         0.0000 
     67 C67        -0.8196   -1.7438    1.7409 C.3       1 UNK         0.0000 
     68 H68        -0.3996   -1.1538    0.9215 H         1 UNK         0.0000 
     69 H69        -1.2181   -1.0423    2.4725 H         1 UNK         0.0000 
     70 H70        -1.6616   -2.3365    1.3746 H         1 UNK         0.0000 
     71 Fe71        3.4730   -1.4193    3.0116 Fe        1 UNK         0.0000 
@<TRIPOS>BOND
     1    1    2 1    
     2    1   71 nc   
     3    2    3 2    
     4    2    4 1    
     5    4    6 1    
     6    4   10 1    
     7    4    5 1    
     8    6    7 1    
     9    6   25 1    
    10    6   26 1    
    11    7    8 1    
    12    8    9 1    
    13    8   10 1    
    14    8   12 1    
    15   10   11 1    
    16   11   27 1    
    17   11   28 1    
    18   11   29 1    
    19   12   14 1    
    20   12   17 1    
    21   12   13 1    
    22   14   15 2    
    23   14   71 nc   
    24   15   16 1    
    25   15   18 1    
    26   16   17 1    
    27   17   30 1    
    28   17   31 1    
    29   18   19 ar   
    30   18   24 ar   
    31   19   20 1    
    32   19   21 ar   
    33   20   71 nc   
    34   21   22 ar   
    35   21   32 1    
    36   22   23 ar   
    37   22   33 1    
    38   23   24 ar   
    39   23   34 1    
    40   24   35 1    
    41   36   39 1    
    42   37   43 2    
    43   38   41 1    
    44   39   45 1    
    45   39   41 1    
    46   39   42 1    
    47   40   46 1    
    48   41   48 1    
    49   41   50 1    
    50   42   49 1    
    51   43   47 1    
    52   43   51 1    
    53   44   50 1    
    54   44   46 1    
    55   46   55 1    
    56   46   51 1    
    57   47   71 nc   
    58   48   49 2    
    59   48   71 nc   
    60   49   53 1    
    61   50   63 1    
    62   50   52 1    
    63   51   52 1    
    64   51   65 1    
    65   52   67 1    
    66   53   56 ar   
    67   53   57 ar   
    68   54   56 1    
    69   54   71 nc   
    70   56   58 ar   
    71   57   61 1    
    72   57   59 ar   
    73   58   60 ar   
    74   58   62 1    
    75   59   64 1    
    76   59   60 ar   
    77   60   66 1    
    78   67   68 1    
    79   67   69 1    
    80   67   70 1    
@<TRIPOS>SUBSTRUCTURE
     1 UNK         1 GROUP             0       ****    0 ROOT    
@<TRIPOS>MOLECULE
217_I_c1
71   80    1
SMALL
USER_CHARGES


@<TRIPOS>ATOM
      1 O1          1.1177   -1.6756    2.3901 O.co2     1 UNK         0.0000 
      2 C2          0.7797   -0.7526    3.2008 C.2       1 UNK         0.0000 
      3 O3          0.1996    0.2938    2.8296 O.co2     1 UNK         0.0000 
      4 C4          1.0608   -0.8584    4.7451 C.3       1 UNK         0.0000 
      5 H5          0.0819   -1.0739    5.1752 H         1 UNK         0.0000 
      6 C6          1.5948    0.4726    5.3316 C.3       1 UNK         0.0000 
      7 S7          3.4014    0.3263    5.2690 S.3       1 UNK         0.0000 
      8 C8          3.3812   -1.4653    5.0092 C.3       1 UNK         0.0000 
      9 H9          3.9959   -1.9091    5.7947 H         1 UNK         0.0000 
     10 N10         2.0023   -1.9166    5.1746 N.3       1 UNK         0.0000 
     11 C11         1.7565   -2.4446    6.5169 C.3       1 UNK         0.0000 
     12 C12         3.9830   -1.8823    3.6400 C.3       1 UNK         0.0000 
     13 H13         3.5793   -1.2450    2.8538 H         1 UNK         0.0000 
     14 N14         3.6173   -3.2586    3.3181 N.pl3     1 UNK         0.0000 
     15 C15         4.5787   -4.0826    3.5281 C.2       1 UNK         0.0000 
     16 S16         6.1292   -3.3228    4.0753 S.3       1 UNK         0.0000 
     17 C17         5.5004   -1.7192    3.5932 C.3       1 UNK         0.0000 
     18 C18         4.5209   -5.5598    3.2919 C.ar      1 UNK         0.0000 
     19 C19         3.4177   -6.2038    2.6744 C.ar      1 UNK         0.0000 
     20 O20         2.3864   -5.5970    2.2598 O.co2     1 UNK         0.0000 
     21 C21         3.4321   -7.5762    2.4365 C.ar      1 UNK         0.0000 
     22 C22         4.5511   -8.3420    2.7662 C.ar      1 UNK         0.0000 
     23 C23         5.6439   -7.7358    3.3639 C.ar      1 UNK         0.0000 
     24 C24         5.6261   -6.3669    3.6299 C.ar      1 UNK         0.0000 
     25 H25         1.2908    0.5504    6.3734 H         1 UNK         0.0000 
     26 H26         1.2687    1.3766    4.8114 H         1 UNK         0.0000 
     27 H27         2.4038   -3.2951    6.7122 H         1 UNK         0.0000 
     28 H28         0.7395   -2.7942    6.6374 H         1 UNK         0.0000 
     29 H29         1.9413   -1.6987    7.2867 H         1 UNK         0.0000 
     30 H30         5.8459   -1.5249    2.5771 H         1 UNK         0.0000 
     31 H31         5.8719   -0.9180    4.2344 H         1 UNK         0.0000 
     32 H32         2.5880   -8.0493    1.9505 H         1 UNK         0.0000 
     33 H33         4.5560   -9.3974    2.5394 H         1 UNK         0.0000 
     34 H34         6.5184   -8.3166    3.6218 H         1 UNK         0.0000 
     35 H35         6.5028   -5.9444    4.0952 H         1 UNK         0.0000 
     36 H36        -4.3376   -2.0437    3.5035 H         1 UNK         0.0000 
     37 C37        -3.3669   -2.5145    3.5499 C.ar      1 UNK         0.0000 
     38 H38        -3.1955   -2.3773    5.6821 H         1 UNK         0.0000 
     39 H39         4.1349   -6.8087   -1.7311 H         1 UNK         0.0000 
     40 C40        -2.7254   -2.6983    4.7672 C.ar      1 UNK         0.0000 
     41 C41         3.9819   -6.4844   -0.7021 C.3       1 UNK         0.0000 
     42 H42         4.9395   -6.1236   -0.3313 H         1 UNK         0.0000 
     43 H43         3.7258   -7.3657   -0.1261 H         1 UNK         0.0000 
     44 C44        -2.7649   -2.9641    2.3790 C.ar      1 UNK         0.0000 
     45 H45        -3.2961   -2.8107    1.4486 H         1 UNK         0.0000 
     46 C46        -1.4659   -3.2876    4.8018 C.ar      1 UNK         0.0000 
     47 H47         4.3702   -4.1952   -1.5054 H         1 UNK         0.0000 
     48 O48         2.5648   -1.9629   -1.2679 O.co2     1 UNK         0.0000 
     49 N49         2.9529   -5.4446   -0.5947 N.3       1 UNK         0.0000 
     50 H50        -0.9785   -3.4183    5.7507 H         1 UNK         0.0000 
     51 C51         3.2870   -4.2578   -1.3822 C.3       1 UNK         0.0000 
     52 C52        -1.5085   -3.5971    2.3923 C.ar      1 UNK         0.0000 
     53 C53         2.8815   -2.9698   -0.6108 C.2       1 UNK         0.0000 
     54 C54        -0.8250   -3.6956    3.6300 C.ar      1 UNK         0.0000 
     55 N55         0.2434   -4.3420    0.8217 N.pl3     1 UNK         0.0000 
     56 H56         1.4549   -6.8571   -0.5137 H         1 UNK         0.0000 
     57 C57         1.5913   -5.8580   -0.9272 C.3       1 UNK         0.0000 
     58 C58        -0.9951   -4.1860    1.1310 C.2       1 UNK         0.0000 
     59 H59         3.4021   -4.5677   -3.5548 H         1 UNK         0.0000 
     60 C60         2.6441   -4.4125   -2.7939 C.3       1 UNK         0.0000 
     61 O61         2.9443   -3.0136    0.6649 O.co2     1 UNK         0.0000 
     62 C62         0.3410   -4.9664   -0.5236 C.3       1 UNK         0.0000 
     63 H63         2.0187   -3.5751   -3.0985 H         1 UNK         0.0000 
     64 S64         1.6323   -5.9175   -2.7334 S.3       1 UNK         0.0000 
     65 H65         0.3163   -4.1165   -1.2134 H         1 UNK         0.0000 
     66 S66        -2.2112   -4.8312   -0.0349 S.3       1 UNK         0.0000 
     67 C67        -0.9218   -5.7925   -0.7742 C.3       1 UNK         0.0000 
     68 H68        -0.8892   -6.7464   -0.2480 H         1 UNK         0.0000 
     69 H69        -1.1346   -5.9776   -1.8269 H         1 UNK         0.0000 
     70 Fe70        1.7697   -3.6796    2.2491 Fe        1 UNK         0.0000 
     71 O71         0.3794   -4.1030    3.7353 O.co2     1 UNK         0.0000 
@<TRIPOS>BOND
     1    1    2 1    
     2    1   70 nc   
     3    2    3 2    
     4    2    4 1    
     5    4    6 1    
     6    4   10 1    
     7    4    5 1    
     8    6    7 1    
     9    6   25 1    
    10    6   26 1    
    11    7    8 1    
    12    8    9 1    
    13    8   10 1    
    14    8   12 1    
    15   10   11 1    
    16   11   27 1    
    17   11   28 1    
    18   11   29 1    
    19   12   14 1    
    20   12   17 1    
    21   12   13 1    
    22   14   15 2    
    23   14   70 nc   
    24   15   16 1    
    25   15   18 1    
    26   16   17 1    
    27   17   30 1    
    28   17   31 1    
    29   18   19 ar   
    30   18   24 ar   
    31   19   20 1    
    32   19   21 ar   
    33   20   70 nc   
    34   21   22 ar   
    35   21   32 1    
    36   22   23 ar   
    37   22   33 1    
    38   23   24 ar   
    39   23   34 1    
    40   24   35 1    
    41   36   37 1    
    42   37   44 ar   
    43   37   40 ar   
    44   38   40 1    
    45   39   41 1    
    46   40   46 ar   
    47   41   43 1    
    48   41   42 1    
    49   41   49 1    
    50   44   45 1    
    51   44   52 ar   
    52   46   50 1    
    53   46   54 ar   
    54   47   51 1    
    55   48   53 2    
    56   49   51 1    
    57   49   57 1    
    58   51   60 1    
    59   51   53 1    
    60   52   54 ar   
    61   52   58 1    
    62   53   61 1    
    63   54   71 1    
    64   55   58 2    
    65   55   62 1    
    66   55   70 nc   
    67   56   57 1    
    68   57   62 1    
    69   57   64 1    
    70   58   66 1    
    71   59   60 1    
    72   60   64 1    
    73   60   63 1    
    74   61   70 nc   
    75   62   67 1    
    76   62   65 1    
    77   66   67 1    
    78   67   69 1    
    79   67   68 1    
    80   70   71 nc   
@<TRIPOS>SUBSTRUCTURE
     1 UNK         1 GROUP             0       ****    0 ROOT    
@<TRIPOS>MOLECULE
217_II_c1
71   80    1
SMALL
USER_CHARGES


@<TRIPOS>ATOM
      1 O1          7.2432    0.6649   -2.4024 O.co2     1 UNK         0.0000 
      2 C2          8.2351    1.4587   -2.6854 C.2       1 UNK         0.0000 
      3 O3          9.2171    1.2056   -3.4122 O.co2     1 UNK         0.0000 
      4 C4          8.2265    2.9549   -2.2084 C.3       1 UNK         0.0000 
      5 H5          8.2557    3.5998   -3.0855 H         1 UNK         0.0000 
      6 C6          9.4383    3.2893   -1.2880 C.3       1 UNK         0.0000 
      7 S7          8.8296    3.2183    0.4458 S.3       1 UNK         0.0000 
      8 C8          7.3155    2.5132   -0.1787 C.3       1 UNK         0.0000 
      9 H9          7.7087    1.5094   -0.3315 H         1 UNK         0.0000 
     10 N10         7.0423    3.2730   -1.4124 N.3       1 UNK         0.0000 
     11 C11         5.7754    3.2639   -2.1664 C.3       1 UNK         0.0000 
     12 C12         6.1626    2.1520    0.6955 C.3       1 UNK         0.0000 
     13 H13         6.5410    1.5750    1.5475 H         1 UNK         0.0000 
     14 N14         5.2660    1.2538   -0.0665 N.pl3     1 UNK         0.0000 
     15 C15         4.0544    1.5770    0.2456 C.2       1 UNK         0.0000 
     16 S16         3.7597    3.0045    1.3100 S.3       1 UNK         0.0000 
     17 C17         5.4756    3.4170    1.2406 C.3       1 UNK         0.0000 
     18 C18         2.8754    0.7840   -0.1319 C.ar      1 UNK         0.0000 
     19 C19         3.0006   -0.6065   -0.2579 C.ar      1 UNK         0.0000 
     20 O20         4.1426   -1.1699   -0.1657 O.co2     1 UNK         0.0000 
     21 C21         1.8648   -1.3900   -0.4724 C.ar      1 UNK         0.0000 
     22 C22         0.6044   -0.7931   -0.6009 C.ar      1 UNK         0.0000 
     23 C23         0.4799    0.5934   -0.5119 C.ar      1 UNK         0.0000 
     24 C24         1.6054    1.3767   -0.2569 C.ar      1 UNK         0.0000 
     25 H25         9.7717    4.3146   -1.4631 H         1 UNK         0.0000 
     26 H26        10.2905    2.6149   -1.4246 H         1 UNK         0.0000 
     27 H27         4.9531    3.6647   -1.5755 H         1 UNK         0.0000 
     28 H28         5.4868    2.2696   -2.5059 H         1 UNK         0.0000 
     29 H29         5.8764    3.8844   -3.0637 H         1 UNK         0.0000 
     30 H30         5.8363    3.6706    2.2391 H         1 UNK         0.0000 
     31 H31         5.5901    4.3071    0.6135 H         1 UNK         0.0000 
     32 H32         1.9686   -2.4608   -0.5554 H         1 UNK         0.0000 
     33 H33        -0.2634   -1.4085   -0.7884 H         1 UNK         0.0000 
     34 H34        -0.4936    1.0504   -0.6135 H         1 UNK         0.0000 
     35 H35         1.4705    2.4505   -0.1336 H         1 UNK         0.0000 
     36 Fe36        5.7211   -0.6157   -1.3842 Fe        1 UNK         0.0000 
     37 O37         7.4996   -1.3966   -0.7650 O.co2     1 UNK         0.0000 
     38 C38         8.3104   -2.1410   -1.4663 C.2       1 UNK         0.0000 
     39 O39         9.2321   -2.7402   -0.8652 O.co2     1 UNK         0.0000 
     40 C40         8.2892   -2.4277   -3.0581 C.3       1 UNK         0.0000 
     41 H41         9.3312   -2.7270   -3.1826 H         1 UNK         0.0000 
     42 C42         7.5679   -3.6865   -3.5906 C.3       1 UNK         0.0000 
     43 S43         6.4037   -3.1317   -4.9132 S.3       1 UNK         0.0000 
     44 C44         6.8013   -1.3678   -4.8058 C.3       1 UNK         0.0000 
     45 H45         7.0807   -1.1412   -5.8381 H         1 UNK         0.0000 
     46 N46         8.0699   -1.3249   -4.0449 N.3       1 UNK         0.0000 
     47 C47         9.2472   -1.2137   -4.9362 C.3       1 UNK         0.0000 
     48 C48         5.6719   -0.2298   -4.5318 C.3       1 UNK         0.0000 
     49 H49         6.1969    0.7164   -4.4464 H         1 UNK         0.0000 
     50 N50         4.8138   -0.4723   -3.3586 N.pl3     1 UNK         0.0000 
     51 C51         3.8586   -1.2309   -3.7806 C.2       1 UNK         0.0000 
     52 S52         3.3197   -0.9949   -5.4670 S.3       1 UNK         0.0000 
     53 C53         4.7380    0.0619   -5.7091 C.3       1 UNK         0.0000 
     54 C54         3.4616   -2.4773   -3.0881 C.ar      1 UNK         0.0000 
     55 C55         4.3868   -3.1380   -2.2500 C.ar      1 UNK         0.0000 
     56 O56         5.5142   -2.6048   -1.9536 O.co2     1 UNK         0.0000 
     57 C57         4.1034   -4.4043   -1.7201 C.ar      1 UNK         0.0000 
     58 C58         2.8925   -5.0336   -2.0146 C.ar      1 UNK         0.0000 
     59 C59         1.9665   -4.3855   -2.8273 C.ar      1 UNK         0.0000 
     60 C60         2.2415   -3.1209   -3.3594 C.ar      1 UNK         0.0000 
     61 H61         7.0734   -4.2518   -2.7974 H         1 UNK         0.0000 
     62 H62         8.2806   -4.3876   -4.0372 H         1 UNK         0.0000 
     63 H63         9.1998   -0.3526   -5.6118 H         1 UNK         0.0000 
     64 H64         9.3466   -2.1184   -5.5435 H         1 UNK         0.0000 
     65 H65        10.1789   -1.0990   -4.3670 H         1 UNK         0.0000 
     66 H66         4.3693    1.0950   -5.6448 H         1 UNK         0.0000 
     67 H67         5.2031   -0.1101   -6.6807 H         1 UNK         0.0000 
     68 H68         4.8349   -4.8989   -1.0903 H         1 UNK         0.0000 
     69 H69         2.6713   -6.0139   -1.6156 H         1 UNK         0.0000 
     70 H70         1.0269   -4.8642   -3.0432 H         1 UNK         0.0000 
     71 H71         1.5155   -2.6709   -4.0242 H         1 UNK         0.0000 
@<TRIPOS>BOND
     1    1    2 1    
     2    1   36 nc   
     3    2    3 2    
     4    2    4 1    
     5    4    6 1    
     6    4   10 1    
     7    4    5 1    
     8    6    7 1    
     9    6   25 1    
    10    6   26 1    
    11    7    8 1    
    12    8   10 1    
    13    8   12 1    
    14    8    9 1    
    15   10   11 1    
    16   11   27 1    
    17   11   28 1    
    18   11   29 1    
    19   12   14 1    
    20   12   17 1    
    21   12   13 1    
    22   14   15 2    
    23   14   36 nc   
    24   15   16 1    
    25   15   18 1    
    26   16   17 1    
    27   17   30 1    
    28   17   31 1    
    29   18   19 ar   
    30   18   24 ar   
    31   19   20 1    
    32   19   21 ar   
    33   20   36 nc   
    34   21   22 ar   
    35   21   32 1    
    36   22   23 ar   
    37   22   33 1    
    38   23   24 ar   
    39   23   34 1    
    40   24   35 1    
    41   36   37 nc   
    42   36   50 nc   
    43   36   56 nc   
    44   37   38 1    
    45   38   39 2    
    46   38   40 1    
    47   40   42 1    
    48   40   46 1    
    49   40   41 1    
    50   42   43 1    
    51   42   61 1    
    52   42   62 1    
    53   43   44 1    
    54   44   46 1    
    55   44   45 1    
    56   44   48 1    
    57   46   47 1    
    58   47   63 1    
    59   47   64 1    
    60   47   65 1    
    61   48   50 1    
    62   48   53 1    
    63   48   49 1    
    64   50   51 2    
    65   51   52 1    
    66   51   54 1    
    67   52   53 1    
    68   53   66 1    
    69   53   67 1    
    70   54   55 ar   
    71   54   60 ar   
    72   55   56 1    
    73   55   57 ar   
    74   57   58 ar   
    75   57   68 1    
    76   58   59 ar   
    77   58   69 1    
    78   59   60 ar   
    79   59   70 1    
    80   60   71 1    
@<TRIPOS>SUBSTRUCTURE
     1 UNK         1 GROUP             0       ****    0 ROOT    
@<TRIPOS>MOLECULE
228_c1
68   75    1
SMALL
USER_CHARGES


@<TRIPOS>ATOM
      1 O1         14.8436   14.5303   -8.6083 O.3       1 UNK         0.0000 
      2 C2         15.5996   13.3827   -8.9304 C.3       1 UNK         0.0000 
      3 H3         14.8537   12.6371   -9.2271 H         1 UNK         0.0000 
      4 C4         16.4142   12.7359   -7.7259 C.3       1 UNK         0.0000 
      5 H5         17.2013   13.4335   -7.4199 H         1 UNK         0.0000 
      6 C6         15.5889   12.4641   -6.4490 C.3       1 UNK         0.0000 
      7 O7         14.6101   11.4546   -6.6470 O.3       1 UNK         0.0000 
      8 O8         17.0825   11.5114   -8.1789 O.3       1 UNK         0.0000 
      9 C9         17.9485   11.5927   -9.3618 C.3       1 UNK         0.0000 
     10 H10        18.9478   11.7692   -8.9612 H         1 UNK         0.0000 
     11 C11        17.6356   12.8234  -10.3654 C.3       1 UNK         0.0000 
     12 H12        16.9409   12.1552  -10.7771 H         1 UNK         0.0000 
     13 O13        18.3227   12.9232  -11.5682 O.co2     1 UNK         0.0000 
     14 C14        16.4219   13.7815  -10.2177 C.3       1 UNK         0.0000 
     15 H15        16.8389   14.7883  -10.1224 H         1 UNK         0.0000 
     16 O16        15.6141   13.8193  -11.4073 O.co2     1 UNK         0.0000 
     17 C17        18.0842   10.2142  -10.1471 C.ar      1 UNK         0.0000 
     18 C18        19.2648    9.9628  -10.8821 C.ar      1 UNK         0.0000 
     19 C19        19.2095    9.9519  -12.3012 C.ar      1 UNK         0.0000 
     20 C20        17.9585   10.3112  -12.8786 C.ar      1 UNK         0.0000 
     21 O21        17.9177   11.1194  -13.8893 O.co2     1 UNK         0.0000 
     22 C22        16.7910   10.1400  -12.1036 C.ar      1 UNK         0.0000 
     23 O23        15.7492   10.8080  -12.3937 O.co2     1 UNK         0.0000 
     24 C24        16.9000    9.7540  -10.7575 C.ar      1 UNK         0.0000 
     25 C25        20.4665    9.7337  -13.1449 C.2       1 UNK         0.0000 
     26 O26        21.5474    9.3857  -12.6537 O.2       1 UNK         0.0000 
     27 N27        20.2234    9.8143  -14.4595 N.am      1 UNK         0.0000 
     28 C28        20.9444    9.5341  -15.7246 C.3       1 UNK         0.0000 
     29 H29        20.7446    8.4828  -15.9378 H         1 UNK         0.0000 
     30 C30        22.5121    9.6723  -15.7499 C.2       1 UNK         0.0000 
     31 O31        23.1124    8.5866  -15.9444 O.co2     1 UNK         0.0000 
     32 O32        22.9668   10.8329  -15.9159 O.co2     1 UNK         0.0000 
     33 C33        20.3293   10.3727  -16.8642 C.3       1 UNK         0.0000 
     34 O34        18.8974   10.3287  -16.8852 O.3       1 UNK         0.0000 
     35 C35        18.1992    9.4344  -17.6198 C.2       1 UNK         0.0000 
     36 O36        18.7381    8.5506  -18.3023 O.2       1 UNK         0.0000 
     37 C37        16.6581    9.6081  -17.5894 C.3       1 UNK         0.0000 
     38 H38        16.2368    8.8776  -16.9035 H         1 UNK         0.0000 
     39 C39        16.0576    9.3406  -19.0096 C.3       1 UNK         0.0000 
     40 O40        16.2995    8.0281  -19.5103 O.3       1 UNK         0.0000 
     41 N41        16.3235   10.9484  -17.0513 N.am      1 UNK         0.0000 
     42 C42        15.7118   12.0189  -17.5894 C.2       1 UNK         0.0000 
     43 O43        15.1158   12.0185  -18.6729 O.2       1 UNK         0.0000 
     44 C44        16.1000   13.3052  -16.9040 C.ar      1 UNK         0.0000 
     45 C45        16.2024   13.4306  -15.4948 C.ar      1 UNK         0.0000 
     46 O46        15.6058   12.6394  -14.6744 O.co2     1 UNK         0.0000 
     47 C47        17.0426   14.4316  -14.9842 C.ar      1 UNK         0.0000 
     48 O48        17.3893   14.4300  -13.7736 O.co2     1 UNK         0.0000 
     49 C49        17.6061   15.3970  -15.8102 C.ar      1 UNK         0.0000 
     50 C50        17.3613   15.3725  -17.1777 C.ar      1 UNK         0.0000 
     51 C51        16.6312   14.3206  -17.7211 C.ar      1 UNK         0.0000 
     52 H52        14.6867   14.8405   -9.5254 H         1 UNK         0.0000 
     53 H53        15.1097   13.3819   -6.1018 H         1 UNK         0.0000 
     54 H54        16.2607   12.1432   -5.6458 H         1 UNK         0.0000 
     55 H55        14.8418   11.0408   -7.4932 H         1 UNK         0.0000 
     56 H56        20.2243   10.1266  -10.4205 H         1 UNK         0.0000 
     57 H57        15.9825    9.8836  -10.1960 H         1 UNK         0.0000 
     58 H58        19.2891   10.2540  -14.5543 H         1 UNK         0.0000 
     59 H59        20.5957   11.4223  -16.7193 H         1 UNK         0.0000 
     60 H60        20.7444   10.0852  -17.8303 H         1 UNK         0.0000 
     61 H61        16.4543   10.0591  -19.7329 H         1 UNK         0.0000 
     62 H62        14.9779    9.4859  -18.9895 H         1 UNK         0.0000 
     63 H63        17.2538    7.8840  -19.3996 H         1 UNK         0.0000 
     64 H64        16.6089   11.1387  -16.0842 H         1 UNK         0.0000 
     65 H65        18.2591   16.1343  -15.3753 H         1 UNK         0.0000 
     66 H66        17.8211   16.1068  -17.8128 H         1 UNK         0.0000 
     67 H67        16.5592   14.2398  -18.7965 H         1 UNK         0.0000 
     68 Fe68       16.7513   12.6332  -12.9631 Fe        1 UNK         0.0000 
@<TRIPOS>BOND
     1    1   52 1    
     2    1    2 1    
     3    2    4 1    
     4    2    3 1    
     5    2   14 1    
     6    4    5 1    
     7    4    6 1    
     8    4    8 1    
     9    6    7 1    
    10    6   53 1    
    11    6   54 1    
    12    7   55 1    
    13    8    9 1    
    14    9   11 1    
    15    9   17 1    
    16    9   10 1    
    17   11   12 1    
    18   11   13 1    
    19   11   14 1    
    20   13   68 nc   
    21   14   16 1    
    22   14   15 1    
    23   16   68 nc   
    24   17   18 ar   
    25   17   24 ar   
    26   18   19 ar   
    27   18   56 1    
    28   19   20 ar   
    29   19   25 1    
    30   20   21 1    
    31   20   22 ar   
    32   21   68 nc   
    33   22   23 1    
    34   22   24 ar   
    35   23   68 nc   
    36   24   57 1    
    37   25   26 2    
    38   25   27 am   BACKBONE|DICT|INTERRES
    39   27   58 1    
    40   27   28 1    
    41   28   30 1    
    42   28   33 1    
    43   28   29 1    
    44   30   31 1    
    45   30   32 2    
    46   33   34 1    
    47   33   59 1    
    48   33   60 1    
    49   34   35 1    
    50   35   36 2    
    51   35   37 1    
    52   37   39 1    
    53   37   41 1    
    54   37   38 1    
    55   39   40 1    
    56   39   61 1    
    57   39   62 1    
    58   40   63 1    
    59   41   42 am   BACKBONE|DICT|INTERRES
    60   41   64 1    
    61   42   43 2    
    62   42   44 1    
    63   44   45 ar   
    64   44   51 ar   
    65   45   46 1    
    66   45   47 ar   
    67   46   68 nc   
    68   47   48 1    
    69   47   49 ar   
    70   48   68 nc   
    71   49   50 ar   
    72   49   65 1    
    73   50   51 ar   
    74   50   66 1    
    75   51   67 1    
@<TRIPOS>SUBSTRUCTURE
     1 UNK         1 GROUP             0       ****    0 ROOT    
@<TRIPOS>MOLECULE
232_c1
141   146    1
SMALL
USER_CHARGES


@<TRIPOS>ATOM
      1 O1          9.4367    5.7104   -5.4676 O.3       1 UNK         0.0000 
      2 C2          9.6807    4.6644   -4.5514 C.3       1 UNK         0.0000 
      3 C3          8.7300    4.7899   -3.3342 C.3       1 UNK         0.0000 
      4 H4          7.7223    4.9714   -3.7214 H         1 UNK         0.0000 
      5 N5          9.0424    6.0284   -2.4656 N.4       1 UNK         0.0000 
      6 H6          8.4387    5.9099   -1.6569 H         1 UNK         0.0000 
      7 H7         10.0056    5.9904   -2.1618 H         1 UNK         0.0000 
      8 C8          8.7427    7.4127   -3.0647 C.3       1 UNK         0.0000 
      9 C9          8.6372    3.5511   -2.3895 C.3       1 UNK         0.0000 
     10 H10         8.3181    2.6923   -2.9886 H         1 UNK         0.0000 
     11 O11         7.5937    3.9045   -1.4836 O.3       1 UNK         0.0000 
     12 C12         9.9457    3.1727   -1.6030 C.3       1 UNK         0.0000 
     13 H13        10.1867    4.0246   -0.9623 H         1 UNK         0.0000 
     14 O14        11.0438    3.0578   -2.4860 O.3       1 UNK         0.0000 
     15 C15         9.8748    1.9322   -0.6438 C.3       1 UNK         0.0000 
     16 H16        10.8776    1.7716   -0.2499 H         1 UNK         0.0000 
     17 O17         9.0673    2.2718    0.4723 O.3       1 UNK         0.0000 
     18 C18         9.3637    0.5938   -1.2529 C.3       1 UNK         0.0000 
     19 H19         8.3492    0.7793   -1.6014 H         1 UNK         0.0000 
     20 C20        10.1339    0.1042   -2.4887 C.2       1 UNK         0.0000 
     21 O21         9.6920    0.3093   -3.6162 O.2       1 UNK         0.0000 
     22 O22         9.1863   -0.4249   -0.2634 O.3       1 UNK         0.0000 
     23 C23        10.2580   -1.0679    0.3626 C.3       1 UNK         0.0000 
     24 H24        11.2051   -0.9460   -0.1552 H         1 UNK         0.0000 
     25 C25        10.3960   -0.5191    1.8258 C.2       1 UNK         0.0000 
     26 N26        11.3249    0.2421    2.2830 N.2       1 UNK         0.0000 
     27 O27        12.3309    0.5749    1.3612 O.3       1 UNK         0.0000 
     28 C28         9.2264   -0.9202    2.7453 C.3       1 UNK         0.0000 
     29 H29         8.6733   -0.0109    2.9937 H         1 UNK         0.0000 
     30 O30         9.7658   -1.3619    3.9918 O.3       1 UNK         0.0000 
     31 C31         8.2568   -1.9275    2.0907 C.3       1 UNK         0.0000 
     32 H32         7.7515   -2.4762    2.8917 H         1 UNK         0.0000 
     33 O33         7.1968   -1.2349    1.4434 O.3       1 UNK         0.0000 
     34 O34        10.0463   -2.4510    0.3353 O.3       1 UNK         0.0000 
     35 C35         8.9495   -2.9530    1.1354 C.3       1 UNK         0.0000 
     36 H36         8.1724   -3.3263    0.4665 H         1 UNK         0.0000 
     37 C37         9.4799   -4.1778    1.8910 C.3       1 UNK         0.0000 
     38 O38        10.6661   -3.8259    2.5858 O.3       1 UNK         0.0000 
     39 C39        11.3032   -4.6238    3.4504 C.2       1 UNK         0.0000 
     40 O40        12.3685   -4.2882    3.9557 O.2       1 UNK         0.0000 
     41 C41        10.6452   -5.9481    3.8485 C.3       1 UNK         0.0000 
     42 C42        10.2528   -5.9591    5.3387 C.3       1 UNK         0.0000 
     43 C43         9.6924   -7.3244    5.7395 C.2       1 UNK         0.0000 
     44 O44        10.4578   -8.3005    5.6676 O.co2     1 UNK         0.0000 
     45 N45         8.4191   -7.5079    6.2037 N.am      1 UNK         0.0000 
     46 O46         7.9663   -8.6773    6.6778 O.co2     1 UNK         0.0000 
     47 C47         7.4081   -6.4182    6.3113 C.3       1 UNK         0.0000 
     48 C48         6.9499   -5.7143    5.0033 C.3       1 UNK         0.0000 
     49 C49         5.9147   -6.4302    4.1037 C.3       1 UNK         0.0000 
     50 C50         6.4608   -7.3775    2.9953 C.3       1 UNK         0.0000 
     51 C51         6.6225   -8.8449    3.4297 C.3       1 UNK         0.0000 
     52 N52         7.3200   -9.7656    2.5201 N.am      1 UNK         0.0000 
     53 C53         8.6062   -9.6736    2.1354 C.2       1 UNK         0.0000 
     54 O54         9.2690   -8.6586    2.2979 O.2       1 UNK         0.0000 
     55 C55         9.3061  -10.9715    1.6903 C.3       1 UNK         0.0000 
     56 C56         9.5213  -12.0813    2.7818 C.3       1 UNK         0.0000 
     57 C57         9.8212  -11.5533    4.1965 C.2       1 UNK         0.0000 
     58 O58         8.9995  -10.7829    4.7072 O.co2     1 UNK         0.0000 
     59 N59        10.9630  -11.8302    4.8819 N.am      1 UNK         0.0000 
     60 O60        11.3925  -11.0818    5.9102 O.co2     1 UNK         0.0000 
     61 C61        11.4437  -13.2284    4.9898 C.3       1 UNK         0.0000 
     62 C62        10.8115  -13.9826    6.2030 C.3       1 UNK         0.0000 
     63 C63        11.6683  -15.1463    6.7445 C.3       1 UNK         0.0000 
     64 C64        12.4780  -14.8553    8.0405 C.3       1 UNK         0.0000 
     65 C65        13.1237  -13.4489    8.2128 C.3       1 UNK         0.0000 
     66 N66        12.3156  -12.4967    9.0018 N.am      1 UNK         0.0000 
     67 C67        12.0915  -12.6267   10.3287 C.2       1 UNK         0.0000 
     68 O68        12.5986  -13.5448   10.9559 O.2       1 UNK         0.0000 
     69 C69        11.1844  -11.6785   11.1308 C.3       1 UNK         0.0000 
     70 C70        10.5322  -10.3951   10.5368 C.3       1 UNK         0.0000 
     71 C71         9.9614  -10.4293    9.1061 C.2       1 UNK         0.0000 
     72 O72        10.4354   -9.6399    8.2713 O.co2     1 UNK         0.0000 
     73 N73         9.0107  -11.3312    8.7112 N.am      1 UNK         0.0000 
     74 O74         8.6160  -11.5604    7.4541 O.co2     1 UNK         0.0000 
     75 C75         8.2817  -12.1976    9.6444 C.3       1 UNK         0.0000 
     76 C76         8.5855  -13.6859    9.3961 C.3       1 UNK         0.0000 
     77 C77         7.7698  -14.5844   10.3071 C.3       1 UNK         0.0000 
     78 C78         8.1259  -16.0613   10.1059 C.3       1 UNK         0.0000 
     79 C79         7.3377  -16.9565   11.0607 C.3       1 UNK         0.0000 
     80 O80         7.6974  -18.2979   10.8421 O.3       1 UNK         0.0000 
     81 H81         9.9153    5.5322   -6.2936 H         1 UNK         0.0000 
     82 H82        10.7337    4.6995   -4.2677 H         1 UNK         0.0000 
     83 H83         9.5044    3.7102   -5.0523 H         1 UNK         0.0000 
     84 H84         7.7239    7.4037   -3.4523 H         1 UNK         0.0000 
     85 H85         9.4767    7.6288   -3.8394 H         1 UNK         0.0000 
     86 H86         8.8428    8.1105   -2.2355 H         1 UNK         0.0000 
     87 H87         6.9481    3.1772   -1.4231 H         1 UNK         0.0000 
     88 H88        11.8368    2.8127   -1.9844 H         1 UNK         0.0000 
     89 H89         9.6321    2.5888    1.1890 H         1 UNK         0.0000 
     90 H90        11.1026   -0.3660   -2.3173 H         1 UNK         0.0000 
     91 H91        13.0219    0.9761    1.9043 H         1 UNK         0.0000 
     92 H92        10.5669   -0.8402    4.1536 H         1 UNK         0.0000 
     93 H93         6.6761   -0.8104    2.1383 H         1 UNK         0.0000 
     94 H94         8.6991   -4.5343    2.5685 H         1 UNK         0.0000 
     95 H95         9.6940   -4.9824    1.1808 H         1 UNK         0.0000 
     96 H96        11.3500   -6.7459    3.6346 H         1 UNK         0.0000 
     97 H97         9.7657   -6.1870    3.2597 H         1 UNK         0.0000 
     98 H98        11.1453   -5.7886    5.9485 H         1 UNK         0.0000 
     99 H99         9.6068   -5.1133    5.5858 H         1 UNK         0.0000 
    100 H100        6.4913   -6.7860    6.7929 H         1 UNK         0.0000 
    101 H101        7.7767   -5.6703    7.0268 H         1 UNK         0.0000 
    102 H102        7.7889   -5.3881    4.4060 H         1 UNK         0.0000 
    103 H103        6.4662   -4.8002    5.3374 H         1 UNK         0.0000 
    104 H104        5.3949   -5.6326    3.5686 H         1 UNK         0.0000 
    105 H105        5.1371   -6.9229    4.6996 H         1 UNK         0.0000 
    106 H106        7.3934   -6.9777    2.5895 H         1 UNK         0.0000 
    107 H107        5.7475   -7.3938    2.1628 H         1 UNK         0.0000 
    108 H108        5.6421   -9.2659    3.6585 H         1 UNK         0.0000 
    109 H109        7.1416   -8.8735    4.3775 H         1 UNK         0.0000 
    110 H110        6.8568  -10.6414    2.3448 H         1 UNK         0.0000 
    111 H111       10.2985  -10.7027    1.3272 H         1 UNK         0.0000 
    112 H112        8.8225  -11.3987    0.8184 H         1 UNK         0.0000 
    113 H113        8.6032  -12.6685    2.8568 H         1 UNK         0.0000 
    114 H114       10.2657  -12.8040    2.4387 H         1 UNK         0.0000 
    115 H115       12.5360  -13.2002    5.1097 H         1 UNK         0.0000 
    116 H116       11.3084  -13.8487    4.0954 H         1 UNK         0.0000 
    117 H117        9.8388  -14.3619    5.8883 H         1 UNK         0.0000 
    118 H118       10.5923  -13.3079    7.0234 H         1 UNK         0.0000 
    119 H119       12.3310  -15.5110    5.9585 H         1 UNK         0.0000 
    120 H120       11.0152  -15.9916    6.9794 H         1 UNK         0.0000 
    121 H121       13.2700  -15.6118    8.1019 H         1 UNK         0.0000 
    122 H122       11.8500  -15.0645    8.9132 H         1 UNK         0.0000 
    123 H123       13.3724  -13.0273    7.2346 H         1 UNK         0.0000 
    124 H124       14.0899  -13.5556    8.7172 H         1 UNK         0.0000 
    125 H125       11.9520  -11.7048    8.4978 H         1 UNK         0.0000 
    126 H126       11.7271  -11.3718   12.0247 H         1 UNK         0.0000 
    127 H127       10.3924  -12.3019   11.5383 H         1 UNK         0.0000 
    128 H128       11.2817   -9.6006   10.5596 H         1 UNK         0.0000 
    129 H129        9.7728  -10.0108   11.2280 H         1 UNK         0.0000 
    130 H130        8.4274  -11.9502   10.7013 H         1 UNK         0.0000 
    131 H131        7.2016  -12.0310    9.5204 H         1 UNK         0.0000 
    132 H132        9.6473  -13.8661    9.5341 H         1 UNK         0.0000 
    133 H133        8.3560  -13.9359    8.3649 H         1 UNK         0.0000 
    134 H134        6.7062  -14.4367   10.1027 H         1 UNK         0.0000 
    135 H135        7.9465  -14.3045   11.3476 H         1 UNK         0.0000 
    136 H136        7.9156  -16.3617    9.0740 H         1 UNK         0.0000 
    137 H137        9.1968  -16.2115   10.2781 H         1 UNK         0.0000 
    138 H138        6.2647  -16.8152   10.9089 H         1 UNK         0.0000 
    139 H139        7.5393  -16.6655   12.0948 H         1 UNK         0.0000 
    140 H140        7.2291  -18.8413   11.4800 H         1 UNK         0.0000 
    141 Fe141       9.6121  -10.0125    6.4397 Fe        1 UNK         0.0000 
@<TRIPOS>BOND
     1    1    2 1    
     2    1   81 1    
     3    2   82 1    
     4    2   83 1    
     5    2    3 1    
     6    3    5 1    
     7    3    4 1    
     8    3    9 1    
     9    5    6 1    
    10    5    7 1    
    11    5    8 1    
    12    8   84 1    
    13    8   85 1    
    14    8   86 1    
    15    9   11 1    
    16    9   10 1    
    17    9   12 1    
    18   11   87 1    
    19   12   14 1    
    20   12   15 1    
    21   12   13 1    
    22   14   88 1    
    23   15   16 1    
    24   15   17 1    
    25   15   18 1    
    26   17   89 1    
    27   18   19 1    
    28   18   20 1    
    29   18   22 1    
    30   20   21 2    
    31   20   90 1    
    32   22   23 1    
    33   23   25 1    
    34   23   34 1    
    35   23   24 1    
    36   25   26 2    
    37   25   28 1    
    38   26   27 1    
    39   27   91 1    
    40   28   31 1    
    41   28   30 1    
    42   28   29 1    
    43   30   92 1    
    44   31   32 1    
    45   31   33 1    
    46   31   35 1    
    47   33   93 1    
    48   34   35 1    
    49   35   37 1    
    50   35   36 1    
    51   37   38 1    
    52   37   94 1    
    53   37   95 1    
    54   38   39 1    
    55   39   40 2    
    56   39   41 1    
    57   41   42 1    
    58   41   96 1    
    59   41   97 1    
    60   42   43 1    
    61   42   98 1    
    62   42   99 1    
    63   43   44 2    
    64   43   45 am   BACKBONE|DICT|INTERRES
    65   44  141 nc   
    66   45   46 1    
    67   45   47 1    
    68   46  141 nc   
    69   47   48 1    
    70   47  100 1    
    71   47  101 1    
    72   48   49 1    
    73   48  102 1    
    74   48  103 1    
    75   49   50 1    
    76   49  104 1    
    77   49  105 1    
    78   50   51 1    
    79   50  106 1    
    80   50  107 1    
    81   51   52 1    
    82   51  108 1    
    83   51  109 1    
    84   52   53 am   BACKBONE|DICT|INTERRES
    85   52  110 1    
    86   53   54 2    
    87   53   55 1    
    88   55   56 1    
    89   55  111 1    
    90   55  112 1    
    91   56   57 1    
    92   56  113 1    
    93   56  114 1    
    94   57   58 2    
    95   57   59 am   BACKBONE|DICT|INTERRES
    96   58  141 nc   
    97   59   60 1    
    98   59   61 1    
    99   60  141 nc   
   100   61   62 1    
   101   61  115 1    
   102   61  116 1    
   103   62   63 1    
   104   62  117 1    
   105   62  118 1    
   106   63   64 1    
   107   63  119 1    
   108   63  120 1    
   109   64   65 1    
   110   64  121 1    
   111   64  122 1    
   112   65   66 1    
   113   65  123 1    
   114   65  124 1    
   115   66   67 am   BACKBONE|DICT|INTERRES
   116   66  125 1    
   117   67   68 2    
   118   67   69 1    
   119   69   70 1    
   120   69  126 1    
   121   69  127 1    
   122   70   71 1    
   123   70  128 1    
   124   70  129 1    
   125   71   72 2    
   126   71   73 am   BACKBONE|DICT|INTERRES
   127   72  141 nc   
   128   73   74 1    
   129   73   75 1    
   130   74  141 nc   
   131   75   76 1    
   132   75  130 1    
   133   75  131 1    
   134   76   77 1    
   135   76  132 1    
   136   76  133 1    
   137   77   78 1    
   138   77  134 1    
   139   77  135 1    
   140   78   79 1    
   141   78  136 1    
   142   78  137 1    
   143   79   80 1    
   144   79  138 1    
   145   79  139 1    
   146   80  140 1    
@<TRIPOS>SUBSTRUCTURE
     1 UNK         1 GROUP             0       ****    0 ROOT    
@<TRIPOS>MOLECULE
243_c1
80   84    1
SMALL
USER_CHARGES


@<TRIPOS>ATOM
      1 O1         13.7038    4.2349    7.7598 O.co2     1 UNK         0.0000 
      2 C2         13.9151    4.1775    6.5325 C.2       1 UNK         0.0000 
      3 C3         14.6056    5.3218    5.7831 C.3       1 UNK         0.0000 
      4 N4         13.4842    3.0530    5.9033 N.am      1 UNK         0.0000 
      5 O5         13.1819    1.9450    6.6169 O.co2     1 UNK         0.0000 
      6 C6         12.9332    3.0184    4.5096 C.3       1 UNK         0.0000 
      7 C7         12.2704    4.2664    3.7884 C.3       1 UNK         0.0000 
      8 C8         11.0957    5.1265    4.3845 C.3       1 UNK         0.0000 
      9 C9          9.6503    4.5364    4.4566 C.2       1 UNK         0.0000 
     10 O10         8.8391    4.8971    3.6031 O.2       1 UNK         0.0000 
     11 C11         9.1889    3.4881    5.5199 C.3       1 UNK         0.0000 
     12 C12         9.6897    3.5514    7.0041 C.3       1 UNK         0.0000 
     13 O13        11.0422    3.8897    6.9200 O.co2     1 UNK         0.0000 
     14 C14         9.5657    2.0755    7.6426 C.2       1 UNK         0.0000 
     15 O15        10.6457    1.5448    8.1010 O.co2     1 UNK         0.0000 
     16 O16         8.4397    1.5399    7.6902 O.co2     1 UNK         0.0000 
     17 C17         9.0099    4.6070    7.9888 C.3       1 UNK         0.0000 
     18 C18         9.5982    6.0405    8.3048 C.2       1 UNK         0.0000 
     19 O19         8.8197    6.9969    8.3117 O.2       1 UNK         0.0000 
     20 C20        11.1046    6.3569    8.6254 C.3       1 UNK         0.0000 
     21 C21        11.6398    6.5155   10.1050 C.3       1 UNK         0.0000 
     22 C22        12.0347    5.3074   11.0619 C.3       1 UNK         0.0000 
     23 N23        12.3401    3.9861   10.4569 N.am      1 UNK         0.0000 
     24 O24        11.3656    3.6814    9.6720 O.co2     1 UNK         0.0000 
     25 C25        13.3685    3.0922   10.5423 C.2       1 UNK         0.0000 
     26 O26        13.3987    2.2035    9.6426 O.co2     1 UNK         0.0000 
     27 C27        14.4629    3.0581   11.6299 C.3       1 UNK         0.0000 
     28 C28        14.3354    3.9657   12.8754 C.3       1 UNK         0.0000 
     29 C29        15.2911    3.5529   14.0116 C.3       1 UNK         0.0000 
     30 C30        16.7882    3.5142   13.6072 C.3       1 UNK         0.0000 
     31 C31        17.3447    4.8275   13.0126 C.3       1 UNK         0.0000 
     32 C32        17.2483    6.0183   13.9846 C.3       1 UNK         0.0000 
     33 C33        17.8744    7.3118   13.4272 C.3       1 UNK         0.0000 
     34 C34        17.7567    8.5137   14.3872 C.3       1 UNK         0.0000 
     35 C35        18.5233    8.3308   15.7136 C.3       1 UNK         0.0000 
     36 C36        18.4479    9.5695   16.6211 C.3       1 UNK         0.0000 
     37 C37        19.2132    9.3736   17.9401 C.3       1 UNK         0.0000 
     38 H38        15.5350    5.5857    6.2839 H         1 UNK         0.0000 
     39 H39        14.8661    5.0611    4.7572 H         1 UNK         0.0000 
     40 H40        13.9714    6.2052    5.7642 H         1 UNK         0.0000 
     41 H41        12.1717    2.2330    4.4707 H         1 UNK         0.0000 
     42 H42        13.7456    2.6692    3.8666 H         1 UNK         0.0000 
     43 H43        13.0515    4.9599    3.4807 H         1 UNK         0.0000 
     44 H44        11.9039    3.8937    2.8329 H         1 UNK         0.0000 
     45 H45        10.9922    5.9898    3.7253 H         1 UNK         0.0000 
     46 H46        11.3569    5.5775    5.3393 H         1 UNK         0.0000 
     47 H47         9.5299    2.5432    5.0980 H         1 UNK         0.0000 
     48 H48         8.1001    3.4179    5.5036 H         1 UNK         0.0000 
     49 H49         8.9313    4.1631    8.9830 H         1 UNK         0.0000 
     50 H50         7.9716    4.7420    7.6824 H         1 UNK         0.0000 
     51 H51        11.2418    7.3302    8.1573 H         1 UNK         0.0000 
     52 H52        11.7825    5.7400    8.0559 H         1 UNK         0.0000 
     53 H53        10.9974    7.2064   10.6481 H         1 UNK         0.0000 
     54 H54        12.5553    7.0924    9.9880 H         1 UNK         0.0000 
     55 H55        12.8362    5.6787   11.6989 H         1 UNK         0.0000 
     56 H56        11.2084    5.1604   11.7603 H         1 UNK         0.0000 
     57 H57        14.4559    2.0245   11.9826 H         1 UNK         0.0000 
     58 H58        15.4294    3.2136   11.1534 H         1 UNK         0.0000 
     59 H59        13.3134    3.9604   13.2644 H         1 UNK         0.0000 
     60 H60        14.5685    4.9961   12.6084 H         1 UNK         0.0000 
     61 H61        15.0006    2.5688   14.3889 H         1 UNK         0.0000 
     62 H62        15.1584    4.2341   14.8565 H         1 UNK         0.0000 
     63 H63        16.9522    2.7050   12.8922 H         1 UNK         0.0000 
     64 H64        17.3777    3.2403   14.4841 H         1 UNK         0.0000 
     65 H65        16.8309    5.0711   12.0799 H         1 UNK         0.0000 
     66 H66        18.3861    4.6700   12.7338 H         1 UNK         0.0000 
     67 H67        17.7370    5.7402   14.9204 H         1 UNK         0.0000 
     68 H68        16.2038    6.2137   14.2329 H         1 UNK         0.0000 
     69 H69        17.3919    7.5653   12.4814 H         1 UNK         0.0000 
     70 H70        18.9274    7.1414   13.1881 H         1 UNK         0.0000 
     71 H71        16.7034    8.7116   14.5990 H         1 UNK         0.0000 
     72 H72        18.1277    9.4031   13.8758 H         1 UNK         0.0000 
     73 H73        19.5683    8.0937   15.5018 H         1 UNK         0.0000 
     74 H74        18.1249    7.4753   16.2614 H         1 UNK         0.0000 
     75 H75        17.4038    9.8026   16.8386 H         1 UNK         0.0000 
     76 H76        18.8473   10.4379   16.0938 H         1 UNK         0.0000 
     77 H77        18.8122    8.5347   18.5112 H         1 UNK         0.0000 
     78 H78        19.1488   10.2608   18.5698 H         1 UNK         0.0000 
     79 H79        20.2703    9.1740   17.7588 H         1 UNK         0.0000 
     80 Fe80       12.2259    2.8611    8.1236 Fe        1 UNK         0.0000 
@<TRIPOS>BOND
     1    1    2 2    
     2    1   80 nc   
     3    2    3 1    
     4    2    4 am   BACKBONE|DICT|INTERRES
     5    3   38 1    
     6    3   39 1    
     7    3   40 1    
     8    4    5 1    
     9    4    6 1    
    10    5   80 nc   
    11    6    7 1    
    12    6   41 1    
    13    6   42 1    
    14    7    8 1    
    15    7   43 1    
    16    7   44 1    
    17    8    9 1    
    18    8   45 1    
    19    8   46 1    
    20    9   10 2    
    21    9   11 1    
    22   11   47 1    
    23   11   48 1    
    24   11   12 1    
    25   12   14 1    
    26   12   17 1    
    27   12   13 1    
    28   13   80 nc   
    29   14   15 1    
    30   14   16 2    
    31   15   80 nc   
    32   17   18 1    
    33   17   49 1    
    34   17   50 1    
    35   18   19 2    
    36   18   20 1    
    37   20   21 1    
    38   20   51 1    
    39   20   52 1    
    40   21   22 1    
    41   21   53 1    
    42   21   54 1    
    43   22   23 1    
    44   22   55 1    
    45   22   56 1    
    46   23   24 1    
    47   23   25 am   BACKBONE|DICT|INTERRES
    48   24   80 nc   
    49   25   26 2    
    50   25   27 1    
    51   26   80 nc   
    52   27   28 1    
    53   27   57 1    
    54   27   58 1    
    55   28   29 1    
    56   28   59 1    
    57   28   60 1    
    58   29   30 1    
    59   29   61 1    
    60   29   62 1    
    61   30   31 1    
    62   30   63 1    
    63   30   64 1    
    64   31   32 1    
    65   31   65 1    
    66   31   66 1    
    67   32   33 1    
    68   32   67 1    
    69   32   68 1    
    70   33   34 1    
    71   33   69 1    
    72   33   70 1    
    73   34   35 1    
    74   34   71 1    
    75   34   72 1    
    76   35   36 1    
    77   35   73 1    
    78   35   74 1    
    79   36   37 1    
    80   36   75 1    
    81   36   76 1    
    82   37   77 1    
    83   37   78 1    
    84   37   79 1    
@<TRIPOS>SUBSTRUCTURE
     1 UNK         1 GROUP             0       ****    0 ROOT    
@<TRIPOS>MOLECULE
246_c1
133   138    1
SMALL
USER_CHARGES


@<TRIPOS>ATOM
      1 O1         14.0476    8.6093    4.2786 O.co2     1 UNK         0.0000 
      2 N2         13.1198    8.0737    5.1087 N.am      1 UNK         0.0000 
      3 C3         13.0051    6.6083    5.2042 C.3       1 UNK         0.0000 
      4 C4         12.5887    6.2138    6.6299 C.3       1 UNK         0.0000 
      5 C5         11.2248    6.8505    6.9459 C.3       1 UNK         0.0000 
      6 C6         11.2817    8.3913    6.8366 C.3       1 UNK         0.0000 
      7 H7         11.8200    8.7208    7.7197 H         1 UNK         0.0000 
      8 C8         12.2591    8.9431    5.7415 C.2       1 UNK         0.0000 
      9 O9         12.4227   10.1507    5.5765 O.co2     1 UNK         0.0000 
     10 N10        10.0177    9.1738    6.9464 N.am      1 UNK         0.0000 
     11 C11         9.2114    9.5602    5.9298 C.2       1 UNK         0.0000 
     12 O12         9.2812    9.0526    4.8077 O.2       1 UNK         0.0000 
     13 C13         8.2388   10.7558    6.2348 C.3       1 UNK         0.0000 
     14 H14         7.4495   10.3081    6.8428 H         1 UNK         0.0000 
     15 C15         7.5884   11.4084    4.9804 C.3       1 UNK         0.0000 
     16 O16         6.6664   10.5467    4.3503 O.3       1 UNK         0.0000 
     17 N17         8.8127   11.8467    7.0640 N.am      1 UNK         0.0000 
     18 C18         9.9457   12.5020    6.7645 C.2       1 UNK         0.0000 
     19 O19        10.7185   12.1393    5.8912 O.2       1 UNK         0.0000 
     20 C20        10.2948   13.7749    7.5538 C.3       1 UNK         0.0000 
     21 H21         9.7783   13.7381    8.5093 H         1 UNK         0.0000 
     22 C22        11.8203   13.8524    7.8367 C.3       1 UNK         0.0000 
     23 C23        12.4691   12.7070    8.6636 C.3       1 UNK         0.0000 
     24 C24        14.0131   12.6420    8.5049 C.3       1 UNK         0.0000 
     25 N25        14.4468   11.6378    7.5113 N.am      1 UNK         0.0000 
     26 O26        14.3442   12.0711    6.2429 O.co2     1 UNK         0.0000 
     27 C27        14.7768   10.3539    7.8428 C.2       1 UNK         0.0000 
     28 O28        14.8732    9.5447    6.9134 O.co2     1 UNK         0.0000 
     29 C29        15.0588    9.8882    9.2910 C.3       1 UNK         0.0000 
     30 C30        14.0228    8.8995    9.8760 C.3       1 UNK         0.0000 
     31 H31        13.8250    8.0762    9.1885 H         1 UNK         0.0000 
     32 O32        14.5974    8.3278   11.0244 O.3       1 UNK         0.0000 
     33 C33        12.6988    9.5246   10.3642 C.3       1 UNK         0.0000 
     34 N34         9.9031   15.0116    6.8675 N.am      1 UNK         0.0000 
     35 C35         9.6426   15.2289    5.5665 C.2       1 UNK         0.0000 
     36 O36         8.9446   14.5124    4.8446 O.2       1 UNK         0.0000 
     37 C37        10.3059   16.5116    5.0041 C.3       1 UNK         0.0000 
     38 H38        10.9108   16.9242    5.8204 H         1 UNK         0.0000 
     39 C39         9.2435   17.6038    4.7069 C.3       1 UNK         0.0000 
     40 C40         8.4688   18.0600    5.9567 C.2       1 UNK         0.0000 
     41 O41         8.9433   17.7389    7.0778 O.co2     1 UNK         0.0000 
     42 O42         7.4647   18.7753    5.7656 O.co2     1 UNK         0.0000 
     43 N43        11.3212   16.3304    3.9365 N.am      1 UNK         0.0000 
     44 C44        11.9414   15.2276    3.4599 C.2       1 UNK         0.0000 
     45 O45        11.5581   14.0592    3.5693 O.2       1 UNK         0.0000 
     46 C46        13.2962   15.4709    2.7335 C.3       1 UNK         0.0000 
     47 H47        13.1463   16.1975    1.9277 H         1 UNK         0.0000 
     48 C48        14.3019   15.9611    3.8335 C.3       1 UNK         0.0000 
     49 H49        13.8609   16.8001    4.3713 H         1 UNK         0.0000 
     50 O50        15.4582   16.4884    3.2345 O.3       1 UNK         0.0000 
     51 C51        14.7250   14.8924    4.8726 C.3       1 UNK         0.0000 
     52 N52        13.6901   14.1789    2.1513 N.am      1 UNK         0.0000 
     53 C53        14.8389   13.8210    1.5524 C.2       1 UNK         0.0000 
     54 O54        15.7335   14.6358    1.3318 O.2       1 UNK         0.0000 
     55 C55        15.0228   12.3255    1.1307 C.3       1 UNK         0.0000 
     56 H56        14.2493   12.0932    0.3966 H         1 UNK         0.0000 
     57 C57        14.8989   11.2548    2.3166 C.3       1 UNK         0.0000 
     58 H58        14.7038   10.3090    1.7979 H         1 UNK         0.0000 
     59 O59        13.7631   11.3717    3.2382 O.co2     1 UNK         0.0000 
     60 C60        16.2243   10.9153    3.1058 C.2       1 UNK         0.0000 
     61 O61        16.1132   10.6514    4.3459 O.co2     1 UNK         0.0000 
     62 O62        17.2972   10.8453    2.4798 O.co2     1 UNK         0.0000 
     63 N63        16.3018   12.1346    0.4369 N.am      1 UNK         0.0000 
     64 C64        16.7101   12.4244   -0.8026 C.2       1 UNK         0.0000 
     65 O65        15.9686   12.8848   -1.6663 O.2       1 UNK         0.0000 
     66 C66        18.1944   12.0882   -1.0752 C.3       1 UNK         0.0000 
     67 C67        18.7823   12.5880   -2.4288 C.3       1 UNK         0.0000 
     68 C68        20.2845   12.2567   -2.6566 C.3       1 UNK         0.0000 
     69 C69        20.5986   10.7727   -2.9869 C.3       1 UNK         0.0000 
     70 C70        21.9346   10.5597   -3.7525 C.3       1 UNK         0.0000 
     71 C71        22.1181    9.0926   -4.2129 C.3       1 UNK         0.0000 
     72 C72        22.9657    8.8908   -5.4963 C.3       1 UNK         0.0000 
     73 C73        24.4704    8.5765   -5.3053 C.3       1 UNK         0.0000 
     74 C74        25.3677    9.7957   -4.9866 C.3       1 UNK         0.0000 
     75 C75        26.8593    9.5638   -5.3328 C.3       1 UNK         0.0000 
     76 C76        27.5207    8.3871   -4.5801 C.3       1 UNK         0.0000 
     77 H77        12.2730    6.2790    4.4687 H         1 UNK         0.0000 
     78 H78        13.9467    6.1411    4.9287 H         1 UNK         0.0000 
     79 H79        13.3469    6.5500    7.3339 H         1 UNK         0.0000 
     80 H80        12.5534    5.1355    6.7320 H         1 UNK         0.0000 
     81 H81        10.9566    6.5701    7.9726 H         1 UNK         0.0000 
     82 H82        10.4359    6.4530    6.3062 H         1 UNK         0.0000 
     83 H83         9.8996    9.7348    7.7770 H         1 UNK         0.0000 
     84 H84         8.3644   11.7222    4.2869 H         1 UNK         0.0000 
     85 H85         7.0458   12.3129    5.2531 H         1 UNK         0.0000 
     86 H86         6.3844   10.9555    3.5255 H         1 UNK         0.0000 
     87 H87         8.1827   12.2738    7.7259 H         1 UNK         0.0000 
     88 H88        12.0307   14.8016    8.3370 H         1 UNK         0.0000 
     89 H89        12.3280   13.9252    6.8770 H         1 UNK         0.0000 
     90 H90        12.2271   12.8356    9.7177 H         1 UNK         0.0000 
     91 H91        12.0319   11.7458    8.3752 H         1 UNK         0.0000 
     92 H92        14.4000   13.6160    8.2093 H         1 UNK         0.0000 
     93 H93        14.4389   12.5038    9.4992 H         1 UNK         0.0000 
     94 H94        15.2497   10.6990    9.9863 H         1 UNK         0.0000 
     95 H95        16.0149    9.3723    9.2306 H         1 UNK         0.0000 
     96 H96        14.4700    8.9266   11.7700 H         1 UNK         0.0000 
     97 H97        12.0150    9.7808    9.5552 H         1 UNK         0.0000 
     98 H98        12.8550   10.4433   10.9278 H         1 UNK         0.0000 
     99 H99        12.1440    8.8407   11.0155 H         1 UNK         0.0000 
    100 H100       10.0666   15.8822    7.3666 H         1 UNK         0.0000 
    101 H101        8.5118   17.1913    4.0125 H         1 UNK         0.0000 
    102 H102        9.6801   18.4978    4.2601 H         1 UNK         0.0000 
    103 H103       11.7489   17.2032    3.6911 H         1 UNK         0.0000 
    104 H104       15.7230   15.8625    2.5234 H         1 UNK         0.0000 
    105 H105       15.4053   15.3036    5.6205 H         1 UNK         0.0000 
    106 H106       15.2432   14.0489    4.4118 H         1 UNK         0.0000 
    107 H107       13.8661   14.4893    5.4101 H         1 UNK         0.0000 
    108 H108       12.9647   13.5130    2.3735 H         1 UNK         0.0000 
    109 H109       16.9958   11.7418    1.0846 H         1 UNK         0.0000 
    110 H110       18.2926   11.0058   -1.0207 H         1 UNK         0.0000 
    111 H111       18.7848   12.4944   -0.2530 H         1 UNK         0.0000 
    112 H112       18.1937   12.1887   -3.2538 H         1 UNK         0.0000 
    113 H113       18.6630   13.6701   -2.4817 H         1 UNK         0.0000 
    114 H114       20.8724   12.5785   -1.7920 H         1 UNK         0.0000 
    115 H115       20.6323   12.8793   -3.4857 H         1 UNK         0.0000 
    116 H116       19.7791   10.3738   -3.5914 H         1 UNK         0.0000 
    117 H117       20.5998   10.1883   -2.0646 H         1 UNK         0.0000 
    118 H118       22.7791   10.8668   -3.1304 H         1 UNK         0.0000 
    119 H119       21.9483   11.2217   -4.6216 H         1 UNK         0.0000 
    120 H120       22.5023    8.4818   -3.3939 H         1 UNK         0.0000 
    121 H121       21.1306    8.6794   -4.4281 H         1 UNK         0.0000 
    122 H122       22.8438    9.7331   -6.1812 H         1 UNK         0.0000 
    123 H123       22.5359    8.0435   -6.0386 H         1 UNK         0.0000 
    124 H124       24.8276    8.1229   -6.2342 H         1 UNK         0.0000 
    125 H125       24.6037    7.8069   -4.5423 H         1 UNK         0.0000 
    126 H126       25.0162   10.6629   -5.5542 H         1 UNK         0.0000 
    127 H127       25.2669   10.0717   -3.9354 H         1 UNK         0.0000 
    128 H128       26.9581    9.4031   -6.4080 H         1 UNK         0.0000 
    129 H129       27.4189   10.4780   -5.1277 H         1 UNK         0.0000 
    130 H130       28.5716    8.2910   -4.8526 H         1 UNK         0.0000 
    131 H131       27.0424    7.4375   -4.8156 H         1 UNK         0.0000 
    132 H132       27.4743    8.5236   -3.5001 H         1 UNK         0.0000 
    133 Fe133      14.2719   10.4202    5.1063 Fe        1 UNK         0.0000 
@<TRIPOS>BOND
     1    1    2 1    
     2    1  133 nc   
     3    2    3 1    
     4    2    8 am   BACKBONE|DICT|INTERRES
     5    3    4 1    
     6    3   77 1    
     7    3   78 1    
     8    4    5 1    
     9    4   79 1    
    10    4   80 1    
    11    5    6 1    
    12    5   81 1    
    13    5   82 1    
    14    6    7 1    
    15    6    8 1    
    16    6   10 1    
    17    8    9 2    
    18    9  133 nc   
    19   10   11 am   BACKBONE|DICT|INTERRES
    20   10   83 1    
    21   11   12 2    
    22   11   13 1    
    23   13   15 1    
    24   13   17 1    
    25   13   14 1    
    26   15   16 1    
    27   15   84 1    
    28   15   85 1    
    29   16   86 1    
    30   17   18 am   BACKBONE|DICT|INTERRES
    31   17   87 1    
    32   18   19 2    
    33   18   20 1    
    34   20   21 1    
    35   20   22 1    
    36   20   34 1    
    37   22   23 1    
    38   22   88 1    
    39   22   89 1    
    40   23   24 1    
    41   23   90 1    
    42   23   91 1    
    43   24   25 1    
    44   24   92 1    
    45   24   93 1    
    46   25   26 1    
    47   25   27 am   BACKBONE|DICT|INTERRES
    48   26  133 nc   
    49   27   28 2    
    50   27   29 1    
    51   28  133 nc   
    52   29   30 1    
    53   29   94 1    
    54   29   95 1    
    55   30   31 1    
    56   30   32 1    
    57   30   33 1    
    58   32   96 1    
    59   33   97 1    
    60   33   98 1    
    61   33   99 1    
    62   34   35 am   BACKBONE|DICT|INTERRES
    63   34  100 1    
    64   35   36 2    
    65   35   37 1    
    66   37   39 1    
    67   37   43 1    
    68   37   38 1    
    69   39   40 1    
    70   39  101 1    
    71   39  102 1    
    72   40   41 1    
    73   40   42 2    
    74   43   44 am   BACKBONE|DICT|INTERRES
    75   43  103 1    
    76   44   45 2    
    77   44   46 1    
    78   46   47 1    
    79   46   52 1    
    80   46   48 1    
    81   48   50 1    
    82   48   51 1    
    83   48   49 1    
    84   50  104 1    
    85   51  105 1    
    86   51  106 1    
    87   51  107 1    
    88   52   53 am   BACKBONE|DICT|INTERRES
    89   52  108 1    
    90   53   54 2    
    91   53   55 1    
    92   55   63 1    
    93   55   56 1    
    94   55   57 1    
    95   57   59 1    
    96   57   60 1    
    97   57   58 1    
    98   59  133 nc   
    99   60   61 1    
   100   60   62 2    
   101   61  133 nc   
   102   63   64 am   BACKBONE|DICT|INTERRES
   103   63  109 1    
   104   64   65 2    
   105   64   66 1    
   106   66   67 1    
   107   66  110 1    
   108   66  111 1    
   109   67   68 1    
   110   67  112 1    
   111   67  113 1    
   112   68   69 1    
   113   68  114 1    
   114   68  115 1    
   115   69   70 1    
   116   69  116 1    
   117   69  117 1    
   118   70   71 1    
   119   70  118 1    
   120   70  119 1    
   121   71   72 1    
   122   71  120 1    
   123   71  121 1    
   124   72   73 1    
   125   72  122 1    
   126   72  123 1    
   127   73   74 1    
   128   73  124 1    
   129   73  125 1    
   130   74   75 1    
   131   74  126 1    
   132   74  127 1    
   133   75   76 1    
   134   75  128 1    
   135   75  129 1    
   136   76  130 1    
   137   76  131 1    
   138   76  132 1    
@<TRIPOS>SUBSTRUCTURE
     1 UNK         1 GROUP             0       ****    0 ROOT    
@<TRIPOS>MOLECULE
248_A_c1
77   86    1
SMALL
USER_CHARGES


@<TRIPOS>ATOM
      1 O1          2.9183   -0.3547    3.2036 O.co2     1 UNK         0.0000 
      2 C2          3.3170   -0.0234    2.0309 C.2       1 UNK         0.0000 
      3 O3          4.2973    0.7496    1.8516 O.co2     1 UNK         0.0000 
      4 C4          2.4973   -0.5150    0.7362 C.3       1 UNK         0.0000 
      5 C5          1.8550    0.7780    0.1277 C.3       1 UNK         0.0000 
      6 N6          1.5527   -1.5809    1.1590 N.3       1 UNK         0.0000 
      7 C7          0.2783   -1.7292    0.4402 C.3       1 UNK         0.0000 
      8 C8          2.3962   -2.7923    1.3380 C.3       1 UNK         0.0000 
      9 H9          3.3046   -2.4630    1.8399 H         1 UNK         0.0000 
     10 S10         3.2694   -3.0552   -0.1851 S.3       1 UNK         0.0000 
     11 C11         3.3361   -1.2347   -0.4009 C.3       1 UNK         0.0000 
     12 C12         2.0717   -3.9089    2.3943 C.3       1 UNK         0.0000 
     13 H13         3.0085   -4.2357    2.8523 H         1 UNK         0.0000 
     14 N14         1.2971   -3.2470    3.4117 N.pl3     1 UNK         0.0000 
     15 C15         0.0382   -3.4156    3.2043 C.2       1 UNK         0.0000 
     16 S16        -0.3535   -4.6930    1.9683 S.3       1 UNK         0.0000 
     17 C17         1.3615   -5.1688    1.9352 C.3       1 UNK         0.0000 
     18 C18        -1.0532   -2.6139    3.8451 C.ar      1 UNK         0.0000 
     19 C19        -0.8251   -1.4684    4.6677 C.ar      1 UNK         0.0000 
     20 O20         0.3192   -0.9400    4.8614 O.co2     1 UNK         0.0000 
     21 C21        -1.9150   -0.8109    5.2631 C.ar      1 UNK         0.0000 
     22 C22        -3.2311   -1.1854    4.9753 C.ar      1 UNK         0.0000 
     23 C23        -3.4622   -2.2199    4.0776 C.ar      1 UNK         0.0000 
     24 C24        -2.3954   -2.9239    3.5379 C.ar      1 UNK         0.0000 
     25 H25         1.2832    0.5965   -0.7740 H         1 UNK         0.0000 
     26 H26         2.6422    1.4776   -0.1624 H         1 UNK         0.0000 
     27 H27         1.2153    1.3043    0.8356 H         1 UNK         0.0000 
     28 H28        -0.0194   -0.8635   -0.1372 H         1 UNK         0.0000 
     29 H29        -0.5216   -1.8635    1.1577 H         1 UNK         0.0000 
     30 H30         0.2507   -2.5822   -0.2352 H         1 UNK         0.0000 
     31 H31         2.8107   -1.0959   -1.3400 H         1 UNK         0.0000 
     32 H32         4.3561   -0.8657   -0.5252 H         1 UNK         0.0000 
     33 H33         1.7190   -5.5359    0.9731 H         1 UNK         0.0000 
     34 H34         1.4834   -5.9607    2.6788 H         1 UNK         0.0000 
     35 H35        -1.7508    0.0064    5.9545 H         1 UNK         0.0000 
     36 H36        -4.0665   -0.6509    5.4214 H         1 UNK         0.0000 
     37 H37        -4.4659   -2.4948    3.7760 H         1 UNK         0.0000 
     38 H38        -2.6162   -3.7247    2.8375 H         1 UNK         0.0000 
     39 S39         3.2957    0.8424    8.5601 S.3       1 UNK         0.0000 
     40 H40         2.8112    2.4133    6.8888 H         1 UNK         0.0000 
     41 C41         3.6680    1.7632    7.0831 C.3       1 UNK         0.0000 
     42 H42         4.5658    2.3785    7.1423 H         1 UNK         0.0000 
     43 O43         1.7980   -3.0649    6.2476 O.co2     1 UNK         0.0000 
     44 C44         2.5877   -0.4872    7.5388 C.2       1 UNK         0.0000 
     45 C45         3.7569    0.6803    6.0229 C.3       1 UNK         0.0000 
     46 C46         1.5252   -2.8409    7.4729 C.ar      1 UNK         0.0000 
     47 S47         6.6952    0.6823    5.6064 S.3       1 UNK         0.0000 
     48 H48         3.4990    1.1550    5.0728 H         1 UNK         0.0000 
     49 H49         4.9855   -0.2389    4.7719 H         1 UNK         0.0000 
     50 C50         1.9144   -1.6625    8.1795 C.ar      1 UNK         0.0000 
     51 C51         5.1149   -0.0887    5.8429 C.3       1 UNK         0.0000 
     52 N52         2.7759   -0.3426    6.2737 N.pl3     1 UNK         0.0000 
     53 H53         0.4876   -4.7362    7.6141 H         1 UNK         0.0000 
     54 C54         0.8618   -3.8751    8.1541 C.ar      1 UNK         0.0000 
     55 O55         6.0741   -3.0102    3.1945 O.co2     1 UNK         0.0000 
     56 H56         7.8519   -1.0028    4.2283 H         1 UNK         0.0000 
     57 C57         7.3843   -0.9716    5.2139 C.3       1 UNK         0.0000 
     58 C58         1.7597   -1.6785    9.5827 C.ar      1 UNK         0.0000 
     59 C59         5.4549   -2.5802    4.1899 C.2       1 UNK         0.0000 
     60 N60         5.3662   -1.4367    6.4191 N.3       1 UNK         0.0000 
     61 C61         0.6798   -3.8280    9.5397 C.ar      1 UNK         0.0000 
     62 H62         8.1633   -1.0789    5.9617 H         1 UNK         0.0000 
     63 C63         6.2961   -2.0978    5.4720 C.3       1 UNK         0.0000 
     64 H64         2.1341   -0.8482   10.1751 H         1 UNK         0.0000 
     65 C65         1.1699   -2.7411   10.2524 C.ar      1 UNK         0.0000 
     66 O66         4.1599   -2.5873    4.2501 O.co2     1 UNK         0.0000 
     67 H67         4.6795   -1.8955    8.3332 H         1 UNK         0.0000 
     68 C68         5.5988   -1.5632    7.8649 C.3       1 UNK         0.0000 
     69 H69         0.1918   -4.6492   10.0595 H         1 UNK         0.0000 
     70 H70         5.8906   -0.6336    8.3492 H         1 UNK         0.0000 
     71 H71         1.1126   -2.7009   11.3337 H         1 UNK         0.0000 
     72 C72         7.0366   -3.3764    5.9974 C.3       1 UNK         0.0000 
     73 H73         6.3346   -2.3052    8.1483 H         1 UNK         0.0000 
     74 H74         7.7009   -3.7622    5.2208 H         1 UNK         0.0000 
     75 H75         7.6716   -3.1873    6.8545 H         1 UNK         0.0000 
     76 H76         6.3513   -4.1843    6.2531 H         1 UNK         0.0000 
     77 Fe77        2.2000   -1.7591    4.7179 Fe        1 UNK         0.0000 
@<TRIPOS>BOND
     1    1    2 1    
     2    1   77 nc   
     3    2    3 2    
     4    2    4 1    
     5    4    6 1    
     6    4   11 1    
     7    4    5 1    
     8    5   25 1    
     9    5   26 1    
    10    5   27 1    
    11    6    7 1    
    12    6    8 1    
    13    7   28 1    
    14    7   29 1    
    15    7   30 1    
    16    8   10 1    
    17    8   12 1    
    18    8    9 1    
    19   10   11 1    
    20   11   31 1    
    21   11   32 1    
    22   12   13 1    
    23   12   14 1    
    24   12   17 1    
    25   14   15 2    
    26   14   77 nc   
    27   15   16 1    
    28   15   18 1    
    29   16   17 1    
    30   17   33 1    
    31   17   34 1    
    32   18   19 ar   
    33   18   24 ar   
    34   19   20 1    
    35   19   21 ar   
    36   20   77 nc   
    37   21   22 ar   
    38   21   35 1    
    39   22   23 ar   
    40   22   36 1    
    41   23   24 ar   
    42   23   37 1    
    43   24   38 1    
    44   39   41 1    
    45   39   44 1    
    46   40   41 1    
    47   41   42 1    
    48   41   45 1    
    49   43   46 1    
    50   43   77 nc   
    51   44   50 1    
    52   44   52 2    
    53   45   48 1    
    54   45   52 1    
    55   45   51 1    
    56   46   54 ar   
    57   46   50 ar   
    58   47   57 1    
    59   47   51 1    
    60   49   51 1    
    61   50   58 ar   
    62   51   60 1    
    63   52   77 nc   
    64   53   54 1    
    65   54   61 ar   
    66   55   59 2    
    67   56   57 1    
    68   57   62 1    
    69   57   63 1    
    70   58   64 1    
    71   58   65 ar   
    72   59   63 1    
    73   59   66 1    
    74   60   68 1    
    75   60   63 1    
    76   61   65 ar   
    77   61   69 1    
    78   63   72 1    
    79   65   71 1    
    80   66   77 nc   
    81   67   68 1    
    82   68   73 1    
    83   68   70 1    
    84   72   75 1    
    85   72   74 1    
    86   72   76 1    
@<TRIPOS>SUBSTRUCTURE
     1 UNK         1 GROUP             0       ****    0 ROOT    
@<TRIPOS>MOLECULE
248_B_c1
77   86    1
SMALL
USER_CHARGES


@<TRIPOS>ATOM
      1 O1          4.5053   -2.0970    0.0138 O.co2     1 UNK         0.0000 
      2 C2          3.6437   -1.1814   -0.1746 C.2       1 UNK         0.0000 
      3 O3          3.8032   -0.2181   -0.9749 O.co2     1 UNK         0.0000 
      4 C4          2.5052   -0.9744    0.8532 C.3       1 UNK         0.0000 
      5 C5          1.1900   -0.8443   -0.0014 C.3       1 UNK         0.0000 
      6 N6          2.9522    0.2156    1.6055 N.3       1 UNK         0.0000 
      7 C7          1.9411    1.0703    2.1717 C.3       1 UNK         0.0000 
      8 C8          4.1114   -0.1408    2.4337 C.3       1 UNK         0.0000 
      9 H9          4.0220    0.3881    3.3903 H         1 UNK         0.0000 
     10 S10         3.8478   -1.8607    3.0023 S.3       1 UNK         0.0000 
     11 C11         2.4185   -2.1256    1.8940 C.3       1 UNK         0.0000 
     12 C12         5.5675    0.3122    1.9362 C.3       1 UNK         0.0000 
     13 H13         6.1392   -0.1589    2.7580 H         1 UNK         0.0000 
     14 N14         6.2513   -0.0484    0.6322 N.pl3     1 UNK         0.0000 
     15 C15         7.3919    0.4763    0.8055 C.2       1 UNK         0.0000 
     16 S16         7.3508    2.1856    1.3282 S.3       1 UNK         0.0000 
     17 C17         5.7306    1.8323    2.0186 C.3       1 UNK         0.0000 
     18 C18         8.5268   -0.4035    1.1928 C.ar      1 UNK         0.0000 
     19 C19         8.3573   -1.8131    1.3910 C.ar      1 UNK         0.0000 
     20 O20         7.3379   -2.5078    0.9838 O.co2     1 UNK         0.0000 
     21 C21         9.3991   -2.5496    1.9405 C.ar      1 UNK         0.0000 
     22 C22        10.6191   -1.9469    2.2492 C.ar      1 UNK         0.0000 
     23 C23        10.8219   -0.5918    1.9910 C.ar      1 UNK         0.0000 
     24 C24         9.7808    0.1751    1.4655 C.ar      1 UNK         0.0000 
     25 H25         0.2966   -0.6370    0.5684 H         1 UNK         0.0000 
     26 H26         1.0205   -1.7540   -0.5829 H         1 UNK         0.0000 
     27 H27         1.2956   -0.0629   -0.7533 H         1 UNK         0.0000 
     28 H28         1.3136    1.4266    1.3589 H         1 UNK         0.0000 
     29 H29         2.4149    1.9265    2.6400 H         1 UNK         0.0000 
     30 H30         1.3274    0.5281    2.8916 H         1 UNK         0.0000 
     31 H31         1.5236   -2.0311    2.5063 H         1 UNK         0.0000 
     32 H32         2.4183   -3.1367    1.4780 H         1 UNK         0.0000 
     33 H33         4.9893    2.3206    1.4029 H         1 UNK         0.0000 
     34 H34         5.6432    2.1825    3.0424 H         1 UNK         0.0000 
     35 H35         9.2800   -3.6158    2.0693 H         1 UNK         0.0000 
     36 H36        11.4265   -2.5446    2.6309 H         1 UNK         0.0000 
     37 H37        11.7680   -0.1081    2.2077 H         1 UNK         0.0000 
     38 H38         9.9682    1.2187    1.2217 H         1 UNK         0.0000 
     39 S39         6.7174   -2.2024   -5.2785 S.3       1 UNK         0.0000 
     40 H40         4.7068   -1.6699   -6.4008 H         1 UNK         0.0000 
     41 C41         5.0123   -1.5634   -5.3622 C.3       1 UNK         0.0000 
     42 H42         4.9622   -0.5026   -5.1029 H         1 UNK         0.0000 
     43 O43         8.2039   -1.4455   -1.6563 O.co2     1 UNK         0.0000 
     44 H44         2.2772   -2.4895   -5.6831 H         1 UNK         0.0000 
     45 H45         2.3505   -1.2551   -4.4231 H         1 UNK         0.0000 
     46 C46         2.6234   -2.2819   -4.6807 C.3       1 UNK         0.0000 
     47 C47         6.1797   -3.8288   -4.6420 C.3       1 UNK         0.0000 
     48 C48         4.1701   -2.5036   -4.4604 C.3       1 UNK         0.0000 
     49 H49         6.5361   -4.4967   -5.4336 H         1 UNK         0.0000 
     50 C50         9.2153   -2.2421   -1.4985 C.ar      1 UNK         0.0000 
     51 O51         5.3546   -1.5495   -2.5446 O.co2     1 UNK         0.0000 
     52 H52        10.5158   -0.5571   -1.6543 H         1 UNK         0.0000 
     53 H53         7.9439   -4.1638   -3.7540 H         1 UNK         0.0000 
     54 N54         6.8612   -3.8200   -1.9490 N.pl3     1 UNK         0.0000 
     55 C55         6.9355   -4.3800   -3.3511 C.3       1 UNK         0.0000 
     56 H56         4.0222   -4.4479   -6.5541 H         1 UNK         0.0000 
     57 C57        10.4579   -1.6221   -1.4819 C.ar      1 UNK         0.0000 
     58 N58         4.7175   -3.8518   -4.6848 N.3       1 UNK         0.0000 
     59 C59         4.3993   -2.3149   -2.9419 C.2       1 UNK         0.0000 
     60 H60         2.0357   -2.8915   -3.9929 H         1 UNK         0.0000 
     61 C61         4.0121   -4.7893   -5.5185 C.3       1 UNK         0.0000 
     62 C62         9.1269   -3.6476   -1.2227 C.ar      1 UNK         0.0000 
     63 C63         7.8532   -4.4032   -1.4106 C.2       1 UNK         0.0000 
     64 C64        11.6147   -2.3402   -1.1781 C.ar      1 UNK         0.0000 
     65 C65         6.8524   -5.8894   -3.1467 C.3       1 UNK         0.0000 
     66 H66         2.9832   -4.8501   -5.1685 H         1 UNK         0.0000 
     67 H67         4.4599   -5.7745   -5.4306 H         1 UNK         0.0000 
     68 O68         3.7838   -3.1397   -2.2322 O.co2     1 UNK         0.0000 
     69 H69        12.5630   -1.8357   -1.1526 H         1 UNK         0.0000 
     70 H70         7.2326   -6.4236   -4.0123 H         1 UNK         0.0000 
     71 C71        10.3029   -4.3444   -0.8781 C.ar      1 UNK         0.0000 
     72 H72         5.8378   -6.1991   -2.9561 H         1 UNK         0.0000 
     73 C73        11.5395   -3.6954   -0.8616 C.ar      1 UNK         0.0000 
     74 S74         7.8405   -6.1807   -1.6669 S.3       1 UNK         0.0000 
     75 H75        10.2562   -5.3899   -0.5865 H         1 UNK         0.0000 
     76 H76        12.4260   -4.2719   -0.6235 H         1 UNK         0.0000 
     77 Fe77        6.4218   -1.8881   -0.7588 Fe        1 UNK         0.0000 
@<TRIPOS>BOND
     1    1    2 1    
     2    1   77 nc   
     3    2    3 2    
     4    2    4 1    
     5    4    6 1    
     6    4   11 1    
     7    4    5 1    
     8    5   25 1    
     9    5   26 1    
    10    5   27 1    
    11    6    7 1    
    12    6    8 1    
    13    7   28 1    
    14    7   29 1    
    15    7   30 1    
    16    8    9 1    
    17    8   10 1    
    18    8   12 1    
    19   10   11 1    
    20   11   31 1    
    21   11   32 1    
    22   12   13 1    
    23   12   14 1    
    24   12   17 1    
    25   14   15 2    
    26   14   77 nc   
    27   15   16 1    
    28   15   18 1    
    29   16   17 1    
    30   17   33 1    
    31   17   34 1    
    32   18   19 ar   
    33   18   24 ar   
    34   19   20 1    
    35   19   21 ar   
    36   20   77 nc   
    37   21   22 ar   
    38   21   35 1    
    39   22   23 ar   
    40   22   36 1    
    41   23   24 ar   
    42   23   37 1    
    43   24   38 1    
    44   39   41 1    
    45   39   47 1    
    46   40   41 1    
    47   41   42 1    
    48   41   48 1    
    49   43   50 1    
    50   43   77 nc   
    51   44   46 1    
    52   45   46 1    
    53   46   60 1    
    54   46   48 1    
    55   47   49 1    
    56   47   55 1    
    57   47   58 1    
    58   48   58 1    
    59   48   59 1    
    60   50   57 ar   
    61   50   62 ar   
    62   51   59 1    
    63   51   77 nc   
    64   52   57 1    
    65   53   55 1    
    66   54   63 2    
    67   54   55 1    
    68   54   77 nc   
    69   55   65 1    
    70   56   61 1    
    71   57   64 ar   
    72   58   61 1    
    73   59   68 2    
    74   61   66 1    
    75   61   67 1    
    76   62   71 ar   
    77   62   63 1    
    78   63   74 1    
    79   64   73 ar   
    80   64   69 1    
    81   65   72 1    
    82   65   70 1    
    83   65   74 1    
    84   71   75 1    
    85   71   73 ar   
    86   73   76 1    
@<TRIPOS>SUBSTRUCTURE
     1 UNK         1 GROUP             0       ****    0 ROOT    
@<TRIPOS>MOLECULE
249_c1
47   54    1
SMALL
USER_CHARGES


@<TRIPOS>ATOM
      1 O1         -3.5799    0.4915    3.6089 O.co2     1 UNK         0.0000 
      2 C2         -2.3151    0.5841    3.4144 C.ar      1 UNK         0.0000 
      3 C3         -1.4675    1.2212    4.3202 C.ar      1 UNK         0.0000 
      4 C4         -0.0975    1.3069    4.0612 C.ar      1 UNK         0.0000 
      5 C5          0.4606    0.7529    2.8985 C.ar      1 UNK         0.0000 
      6 C6         -0.3653    0.0633    1.9626 C.ar      1 UNK         0.0000 
      7 C7         -1.7325   -0.0048    2.2674 C.ar      1 UNK         0.0000 
      8 C8          0.0561   -0.5663    0.7378 C.ar      1 UNK         0.0000 
      9 O9          1.3919   -0.4289    0.4176 O.3       1 UNK         0.0000 
     10 C10         1.8937   -1.0628   -0.7441 C.3       1 UNK         0.0000 
     11 C11        -0.8963   -1.2775   -0.0526 C.ar      1 UNK         0.0000 
     12 C12        -2.2134   -1.3909    0.4041 C.ar      1 UNK         0.0000 
     13 N13        -2.5586   -0.7091    1.5046 N.pl3     1 UNK         0.0000 
     14 C14        -3.3644   -2.1949   -0.1670 C.2       1 UNK         0.0000 
     15 S15        -3.2169   -3.0056   -1.6962 S.3       1 UNK         0.0000 
     16 O16        -4.3528   -2.2004    0.5699 O.co2     1 UNK         0.0000 
     17 H17        -1.8749    1.6506    5.2247 H         1 UNK         0.0000 
     18 H18         0.5324    1.8404    4.7571 H         1 UNK         0.0000 
     19 H19         1.5150    0.8480    2.6845 H         1 UNK         0.0000 
     20 H20         2.9598   -0.8480   -0.8010 H         1 UNK         0.0000 
     21 H21         1.4237   -0.6780   -1.6464 H         1 UNK         0.0000 
     22 H22         1.7697   -2.1428   -0.6960 H         1 UNK         0.0000 
     23 H23        -0.6249   -1.7164   -1.0034 H         1 UNK         0.0000 
     24 H24        -9.6328    0.9558   -0.1809 H         1 UNK         0.0000 
     25 C25        -8.8919    0.5318    0.4793 C.ar      1 UNK         0.0000 
     26 C26        -9.2958   -0.1135    1.6588 C.ar      1 UNK         0.0000 
     27 H27       -10.3393   -0.1988    1.9201 H         1 UNK         0.0000 
     28 H28        -9.8959   -3.1003    5.4168 H         1 UNK         0.0000 
     29 C29        -7.5406    0.6817    0.1592 C.ar      1 UNK         0.0000 
     30 H30        -7.2512    1.1864   -0.7524 H         1 UNK         0.0000 
     31 H31       -11.2915   -2.0299    5.5318 H         1 UNK         0.0000 
     32 O32        -9.8940   -1.4218    4.1872 O.3       1 UNK         0.0000 
     33 C33       -10.2096   -2.0583    5.4117 C.3       1 UNK         0.0000 
     34 C34        -8.3244   -0.6563    2.5504 C.ar      1 UNK         0.0000 
     35 C35        -8.5728   -1.3367    3.7961 C.ar      1 UNK         0.0000 
     36 C36        -6.5588    0.1862    1.0152 C.ar      1 UNK         0.0000 
     37 C37        -6.9821   -0.5012    2.1769 C.ar      1 UNK         0.0000 
     38 O38        -5.3049    0.3161    0.7717 O.co2     1 UNK         0.0000 
     39 C39        -7.4773   -1.8691    4.5394 C.ar      1 UNK         0.0000 
     40 N40        -6.0154   -1.0580    2.8922 N.pl3     1 UNK         0.0000 
     41 C41        -6.1821   -1.7677    4.0158 C.ar      1 UNK         0.0000 
     42 H42        -7.6244   -2.3345    5.5046 H         1 UNK         0.0000 
     43 H43        -9.7630   -1.5370    6.2557 H         1 UNK         0.0000 
     44 C44        -4.8885   -2.3432    4.5484 C.2       1 UNK         0.0000 
     45 O45        -3.9351   -2.1731    3.7721 O.co2     1 UNK         0.0000 
     46 S46        -4.8269   -3.1506    6.0816 S.3       1 UNK         0.0000 
     47 Fe47       -4.2968   -0.8517    2.1831 Fe        1 UNK         0.0000 
@<TRIPOS>BOND
     1    1    2 1    
     2    1   47 nc   
     3    2    3 ar   
     4    2    7 ar   
     5    3    4 ar   
     6    3   17 1    
     7    4    5 ar   
     8    4   18 1    
     9    5    6 ar   
    10    5   19 1    
    11    6    7 ar   
    12    6    8 ar   
    13    7   13 ar   
    14    8    9 1    
    15    8   11 ar   
    16    9   10 1    
    17   10   20 1    
    18   10   21 1    
    19   10   22 1    
    20   11   12 ar   
    21   11   23 1    
    22   12   13 ar   
    23   12   14 1    
    24   13   47 nc   
    25   14   15 1    
    26   14   16 2    
    27   16   47 nc   
    28   24   25 1    
    29   25   26 ar   
    30   25   29 ar   
    31   26   34 ar   
    32   26   27 1    
    33   28   33 1    
    34   29   30 1    
    35   29   36 ar   
    36   31   33 1    
    37   32   33 1    
    38   32   35 1    
    39   33   43 1    
    40   34   37 ar   
    41   34   35 ar   
    42   35   39 ar   
    43   36   37 ar   
    44   36   38 1    
    45   37   40 ar   
    46   38   47 nc   
    47   39   41 ar   
    48   39   42 1    
    49   40   41 ar   
    50   40   47 nc   
    51   41   44 1    
    52   44   46 1    
    53   44   45 2    
    54   45   47 nc   
@<TRIPOS>SUBSTRUCTURE
     1 UNK         1 GROUP             0       ****    0 ROOT    
@<TRIPOS>MOLECULE
255_c1
144   151    1
SMALL
USER_CHARGES


@<TRIPOS>ATOM
      1 C1          2.8417  -20.1040    7.0600 C.ar      1 UNK         0.0000 
      2 C2          3.3359  -21.3750    6.7889 C.ar      1 UNK         0.0000 
      3 C3          3.6237  -21.7399    5.4752 C.ar      1 UNK         0.0000 
      4 C4          3.4715  -20.8272    4.4289 C.ar      1 UNK         0.0000 
      5 O5          3.6863  -21.2238    3.2359 O.co2     1 UNK         0.0000 
      6 C6          3.0764  -19.5015    4.7211 C.ar      1 UNK         0.0000 
      7 O7          3.0966  -18.6182    3.7985 O.co2     1 UNK         0.0000 
      8 C8          2.6929  -19.1558    6.0420 C.ar      1 UNK         0.0000 
      9 C9          2.0452  -17.8304    6.3986 C.2       1 UNK         0.0000 
     10 O10         0.8738  -17.5596    6.1259 O.2       1 UNK         0.0000 
     11 N11         2.6592  -16.9736    7.2254 N.am      1 UNK         0.0000 
     12 C12         4.0903  -16.8777    7.5699 C.3       1 UNK         0.0000 
     13 H13         4.5020  -17.8801    7.7312 H         1 UNK         0.0000 
     14 C14         4.1667  -16.0358    8.8645 C.3       1 UNK         0.0000 
     15 C15         3.4295  -16.6366   10.0697 C.3       1 UNK         0.0000 
     16 C16         3.5673  -15.7213   11.2892 C.3       1 UNK         0.0000 
     17 N17         2.8287  -16.2583   12.4491 N.pl3     1 UNK         0.0000 
     18 C18         1.8072  -15.6955   13.1182 C.cat     1 UNK         0.0000 
     19 N19         1.2882  -16.3246   14.1794 N.pl3     1 UNK         0.0000 
     20 N20         1.3135  -14.5168   12.7409 N.pl3     1 UNK         0.0000 
     21 H21         1.6722  -14.0479   11.9198 H         1 UNK         0.0000 
     22 H22         0.5717  -14.0384   13.2381 H         1 UNK         0.0000 
     23 C23         4.9308  -16.1543    6.4713 C.2       1 UNK         0.0000 
     24 O24         6.1594  -16.2248    6.4849 O.2       1 UNK         0.0000 
     25 N25         4.2081  -15.3590    5.6663 N.am      1 UNK         0.0000 
     26 C26         4.5289  -14.9022    4.3149 C.3       1 UNK         0.0000 
     27 H27         5.3214  -15.5158    3.8853 H         1 UNK         0.0000 
     28 C28         3.1899  -15.1150    3.5480 C.3       1 UNK         0.0000 
     29 O29         3.0145  -14.4562    2.3216 O.3       1 UNK         0.0000 
     30 C30         4.9350  -13.4312    4.3216 C.2       1 UNK         0.0000 
     31 O31         4.8302  -12.6547    5.2795 O.2       1 UNK         0.0000 
     32 O32         5.3816  -13.0714    3.1193 O.3       1 UNK         0.0000 
     33 C33         5.5362  -11.7186    2.7320 C.3       1 UNK         0.0000 
     34 C34         6.2016  -11.6586    1.3307 C.3       1 UNK         0.0000 
     35 H35         6.1572  -10.6221    0.9829 H         1 UNK         0.0000 
     36 N36         5.5642  -12.5163    0.2953 N.am      1 UNK         0.0000 
     37 C37         4.3644  -12.2388   -0.2456 C.2       1 UNK         0.0000 
     38 O38         3.7244  -11.2373    0.0858 O.2       1 UNK         0.0000 
     39 C39         3.8350  -13.0756   -1.4494 C.3       1 UNK         0.0000 
     40 H40         3.1631  -12.3995   -1.9766 H         1 UNK         0.0000 
     41 C41         4.8844  -13.5272   -2.5185 C.3       1 UNK         0.0000 
     42 C42         5.7587  -12.4146   -3.1287 C.3       1 UNK         0.0000 
     43 C43         6.5339  -12.9070   -4.3638 C.3       1 UNK         0.0000 
     44 N44         7.3857  -14.0781   -4.0680 N.pl3     1 UNK         0.0000 
     45 C45         8.5219  -14.1095   -3.3456 C.cat     1 UNK         0.0000 
     46 N46         9.1539  -15.2717   -3.1344 N.pl3     1 UNK         0.0000 
     47 N47         9.0250  -12.9808   -2.8431 N.pl3     1 UNK         0.0000 
     48 H48         8.4308  -12.1789   -2.7747 H         1 UNK         0.0000 
     49 H49         9.5987  -13.1011   -2.0089 H         1 UNK         0.0000 
     50 N50         2.9633  -14.1884   -1.0412 N.am      1 UNK         0.0000 
     51 C51         3.3822  -15.3707   -0.5503 C.2       1 UNK         0.0000 
     52 O52         4.5836  -15.5444   -0.3875 O.2       1 UNK         0.0000 
     53 C53         2.3111  -16.4175   -0.2280 C.ar      1 UNK         0.0000 
     54 C54         2.6123  -17.5830    0.5241 C.ar      1 UNK         0.0000 
     55 O55         3.7542  -17.7255    1.0735 O.co2     1 UNK         0.0000 
     56 C56         1.6287  -18.5836    0.7095 C.ar      1 UNK         0.0000 
     57 O57         1.8849  -19.6716    1.3219 O.co2     1 UNK         0.0000 
     58 C58         0.3326  -18.3876    0.2389 C.ar      1 UNK         0.0000 
     59 C59         0.0148  -17.2116   -0.4360 C.ar      1 UNK         0.0000 
     60 C60         0.9901  -16.2531   -0.6807 C.ar      1 UNK         0.0000 
     61 C61         7.6794  -12.0290    1.3871 C.2       1 UNK         0.0000 
     62 O62         8.5466  -11.3729    0.8006 O.2       1 UNK         0.0000 
     63 O63         7.9370  -13.1135    2.1364 O.3       1 UNK         0.0000 
     64 C64         9.1931  -13.7740    2.1397 C.3       1 UNK         0.0000 
     65 C65         9.0245  -15.1412    1.4327 C.3       1 UNK         0.0000 
     66 H66         7.9936  -15.4770    1.5686 H         1 UNK         0.0000 
     67 C67         9.1585  -14.9225   -0.1048 C.2       1 UNK         0.0000 
     68 O68        10.1608  -15.3575   -0.7184 O.co2     1 UNK         0.0000 
     69 O69         8.2841  -14.1827   -0.6001 O.co2     1 UNK         0.0000 
     70 N70         9.8747  -16.2566    1.8956 N.am      1 UNK         0.0000 
     71 C71        10.1511  -16.6114    3.1687 C.2       1 UNK         0.0000 
     72 O72        10.0333  -15.8511    4.1309 O.2       1 UNK         0.0000 
     73 C73        10.7120  -18.0498    3.3872 C.3       1 UNK         0.0000 
     74 H74        11.6931  -18.0734    2.9194 H         1 UNK         0.0000 
     75 C75        10.9128  -18.4765    4.8809 C.3       1 UNK         0.0000 
     76 C76        11.9632  -17.6798    5.6772 C.3       1 UNK         0.0000 
     77 C77        11.9321  -18.0338    7.1677 C.3       1 UNK         0.0000 
     78 N78        12.8701  -17.1706    7.9145 N.pl3     1 UNK         0.0000 
     79 C79        12.6823  -15.8669    8.1951 C.cat     1 UNK         0.0000 
     80 N80        13.6663  -15.1734    8.7848 N.pl3     1 UNK         0.0000 
     81 N81        11.5310  -15.2601    7.8929 N.pl3     1 UNK         0.0000 
     82 H82        10.7883  -15.7698    7.4202 H         1 UNK         0.0000 
     83 H83        11.3385  -14.2744    8.0281 H         1 UNK         0.0000 
     84 N84         9.8898  -19.0134    2.6296 N.am      1 UNK         0.0000 
     85 C85         8.6840  -19.5026    2.9881 C.2       1 UNK         0.0000 
     86 O86         8.2851  -19.4300    4.1488 O.2       1 UNK         0.0000 
     87 C87         7.9018  -20.1595    1.8561 C.ar      1 UNK         0.0000 
     88 C88         6.4969  -20.0110    1.7066 C.ar      1 UNK         0.0000 
     89 O89         5.8202  -19.2911    2.5254 O.co2     1 UNK         0.0000 
     90 C90         5.8364  -20.6405    0.6247 C.ar      1 UNK         0.0000 
     91 O91         4.5770  -20.5688    0.4547 O.co2     1 UNK         0.0000 
     92 C92         6.5674  -21.3720   -0.3125 C.ar      1 UNK         0.0000 
     93 C93         7.9471  -21.4852   -0.1882 C.ar      1 UNK         0.0000 
     94 C94         8.6032  -20.8982    0.8829 C.ar      1 UNK         0.0000 
     95 H95         2.5616  -19.8493    8.0662 H         1 UNK         0.0000 
     96 H96         3.4687  -22.0884    7.5825 H         1 UNK         0.0000 
     97 H97         3.9560  -22.7387    5.2410 H         1 UNK         0.0000 
     98 H98         2.1008  -16.1578    7.3975 H         1 UNK         0.0000 
     99 H99         3.7735  -15.0356    8.6613 H         1 UNK         0.0000 
    100 H100        5.2185  -15.8937    9.1384 H         1 UNK         0.0000 
    101 H101        2.3785  -16.8083    9.8398 H         1 UNK         0.0000 
    102 H102        3.8751  -17.6104   10.2792 H         1 UNK         0.0000 
    103 H103        3.3080  -14.6907   11.0389 H         1 UNK         0.0000 
    104 H104        4.6176  -15.6957   11.5799 H         1 UNK         0.0000 
    105 H105        3.1757  -17.1651   12.7370 H         1 UNK         0.0000 
    106 H106        1.6369  -17.2244   14.4894 H         1 UNK         0.0000 
    107 H107        0.5267  -15.9427   14.7297 H         1 UNK         0.0000 
    108 H108        3.2115  -15.4078    5.7946 H         1 UNK         0.0000 
    109 H109        2.3329  -14.8834    4.1826 H         1 UNK         0.0000 
    110 H110        3.1022  -16.1590    3.2711 H         1 UNK         0.0000 
    111 H111        3.2485  -15.1635    1.6996 H         1 UNK         0.0000 
    112 H112        6.1094  -11.1357    3.4522 H         1 UNK         0.0000 
    113 H113        4.5395  -11.2761    2.6922 H         1 UNK         0.0000 
    114 H114        6.0293  -13.3996    0.0733 H         1 UNK         0.0000 
    115 H115        4.3255  -14.0478   -3.3017 H         1 UNK         0.0000 
    116 H116        5.5805  -14.2660   -2.1108 H         1 UNK         0.0000 
    117 H117        6.4426  -12.0497   -2.3618 H         1 UNK         0.0000 
    118 H118        5.1306  -11.5672   -3.4222 H         1 UNK         0.0000 
    119 H119        7.1255  -12.1042   -4.7972 H         1 UNK         0.0000 
    120 H120        5.8245  -13.1988   -5.1404 H         1 UNK         0.0000 
    121 H121        6.9526  -14.9701   -4.2764 H         1 UNK         0.0000 
    122 H122        8.7802  -16.1681   -3.4004 H         1 UNK         0.0000 
    123 H123        9.7250  -15.3230   -2.2486 H         1 UNK         0.0000 
    124 H124        1.9915  -13.9756   -0.9011 H         1 UNK         0.0000 
    125 H125       -0.4106  -19.1511    0.4248 H         1 UNK         0.0000 
    126 H126       -0.9956  -17.0654   -0.7704 H         1 UNK         0.0000 
    127 H127        0.6896  -15.3783   -1.2255 H         1 UNK         0.0000 
    128 H128        9.4328  -13.8807    3.1918 H         1 UNK         0.0000 
    129 H129       10.0001  -13.1841    1.7105 H         1 UNK         0.0000 
    130 H130       10.0836  -16.9012    1.1468 H         1 UNK         0.0000 
    131 H131       11.1629  -19.5403    4.9069 H         1 UNK         0.0000 
    132 H132        9.9692  -18.3702    5.4245 H         1 UNK         0.0000 
    133 H133       12.9489  -17.8849    5.2603 H         1 UNK         0.0000 
    134 H134       11.8073  -16.6081    5.5758 H         1 UNK         0.0000 
    135 H135       12.2577  -19.0693    7.2746 H         1 UNK         0.0000 
    136 H136       10.9269  -17.9963    7.5925 H         1 UNK         0.0000 
    137 H137       13.7352  -17.6305    8.1646 H         1 UNK         0.0000 
    138 H138       14.5586  -15.5986    9.0103 H         1 UNK         0.0000 
    139 H139       13.5780  -14.1904    9.0199 H         1 UNK         0.0000 
    140 H140       10.0620  -19.0689    1.6384 H         1 UNK         0.0000 
    141 H141        6.0374  -21.8361   -1.1277 H         1 UNK         0.0000 
    142 H142        8.4951  -22.0327   -0.9351 H         1 UNK         0.0000 
    143 H143        9.6690  -21.0184    0.9434 H         1 UNK         0.0000 
    144 Fe144       3.8107  -19.5349    2.0639 Fe        1 UNK         0.0000 
@<TRIPOS>BOND
     1    1    2 ar   
     2    1    8 ar   
     3    1   95 1    
     4    2    3 ar   
     5    2   96 1    
     6    3    4 ar   
     7    3   97 1    
     8    4    5 1    
     9    4    6 ar   
    10    5  144 nc   
    11    6    7 1    
    12    6    8 ar   
    13    7  144 nc   
    14    8    9 1    
    15    9   10 2    
    16    9   11 am   BACKBONE|DICT|INTERRES
    17   11   98 1    
    18   11   12 1    
    19   12   14 1    
    20   12   23 1    
    21   12   13 1    
    22   14   15 1    
    23   14   99 1    
    24   14  100 1    
    25   15   16 1    
    26   15  101 1    
    27   15  102 1    
    28   16   17 1    
    29   16  103 1    
    30   16  104 1    
    31   17   18 ar   
    32   17  105 1    
    33   18   19 ar   
    34   18   20 ar   
    35   19  106 1    
    36   19  107 1    
    37   20   21 1    
    38   20   22 1    
    39   23   24 2    
    40   23   25 am   BACKBONE|DICT|INTERRES
    41   25   26 1    
    42   25  108 1    
    43   26   27 1    
    44   26   28 1    
    45   26   30 1    
    46   28   29 1    
    47   28  109 1    
    48   28  110 1    
    49   29  111 1    
    50   30   31 2    
    51   30   32 1    
    52   32   33 1    
    53   33  112 1    
    54   33  113 1    
    55   33   34 1    
    56   34   36 1    
    57   34   61 1    
    58   34   35 1    
    59   36   37 am   BACKBONE|DICT|INTERRES
    60   36  114 1    
    61   37   38 2    
    62   37   39 1    
    63   39   40 1    
    64   39   41 1    
    65   39   50 1    
    66   41   42 1    
    67   41  115 1    
    68   41  116 1    
    69   42   43 1    
    70   42  117 1    
    71   42  118 1    
    72   43   44 1    
    73   43  119 1    
    74   43  120 1    
    75   44   45 ar   
    76   44  121 1    
    77   45   46 ar   
    78   45   47 ar   
    79   46  122 1    
    80   46  123 1    
    81   47   48 1    
    82   47   49 1    
    83   50   51 am   BACKBONE|DICT|INTERRES
    84   50  124 1    
    85   51   52 2    
    86   51   53 1    
    87   53   54 ar   
    88   53   60 ar   
    89   54   55 1    
    90   54   56 ar   
    91   55  144 nc   
    92   56   57 1    
    93   56   58 ar   
    94   57  144 nc   
    95   58   59 ar   
    96   58  125 1    
    97   59   60 ar   
    98   59  126 1    
    99   60  127 1    
   100   61   62 2    
   101   61   63 1    
   102   63   64 1    
   103   64   65 1    
   104   64  128 1    
   105   64  129 1    
   106   65   66 1    
   107   65   67 1    
   108   65   70 1    
   109   67   68 1    
   110   67   69 2    
   111   70   71 am   BACKBONE|DICT|INTERRES
   112   70  130 1    
   113   71   72 2    
   114   71   73 1    
   115   73   74 1    
   116   73   75 1    
   117   73   84 1    
   118   75   76 1    
   119   75  131 1    
   120   75  132 1    
   121   76   77 1    
   122   76  133 1    
   123   76  134 1    
   124   77   78 1    
   125   77  135 1    
   126   77  136 1    
   127   78   79 ar   
   128   78  137 1    
   129   79   80 ar   
   130   79   81 ar   
   131   80  138 1    
   132   80  139 1    
   133   81   82 1    
   134   81   83 1    
   135   84   85 am   BACKBONE|DICT|INTERRES
   136   84  140 1    
   137   85   86 2    
   138   85   87 1    
   139   87   88 ar   
   140   87   94 ar   
   141   88   89 1    
   142   88   90 ar   
   143   89  144 nc   
   144   90   91 1    
   145   90   92 ar   
   146   91  144 nc   
   147   92   93 ar   
   148   92  141 1    
   149   93   94 ar   
   150   93  142 1    
   151   94  143 1    
@<TRIPOS>SUBSTRUCTURE
     1 UNK         1 GROUP             0       ****    0 ROOT    
@<TRIPOS>MOLECULE
259_c1
48   53    1
SMALL
USER_CHARGES


@<TRIPOS>ATOM
      1 O1         -0.0544   -1.1677   -1.3242 O.co2     1 UNK         0.0000 
      2 C2          0.5572   -0.7455   -0.2829 C.2       1 UNK         0.0000 
      3 O3          0.0482   -0.5961    0.8522 O.co2     1 UNK         0.0000 
      4 C4          2.1096   -0.4338   -0.4930 C.3       1 UNK         0.0000 
      5 O5          2.6109   -0.7608   -1.7743 O.co2     1 UNK         0.0000 
      6 N6          2.3947    1.0027   -0.1646 N.am      1 UNK         0.0000 
      7 C7          2.9146    1.1301    1.0947 C.2       1 UNK         0.0000 
      8 O8          3.1865    2.1683    1.7129 O.2       1 UNK         0.0000 
      9 C9          3.2030   -0.2673    1.6329 C.3       1 UNK         0.0000 
     10 C10         3.0722   -1.1806    0.4371 C.3       1 UNK         0.0000 
     11 C11         2.0731    2.2851   -0.9164 C.3       1 UNK         0.0000 
     12 H12         1.4583    2.8468   -0.2127 H         1 UNK         0.0000 
     13 C13         3.3229    3.1227   -1.2720 C.3       1 UNK         0.0000 
     14 C14         1.0656    2.2333   -2.1331 C.2       1 UNK         0.0000 
     15 O15        -0.1209    1.9695   -1.9438 O.2       1 UNK         0.0000 
     16 N16         1.4872    2.5770   -3.3725 N.am      1 UNK         0.0000 
     17 C17         0.6368    2.5754   -4.5826 C.3       1 UNK         0.0000 
     18 C18         1.3552    2.1721   -5.9099 C.3       1 UNK         0.0000 
     19 O19         1.7703    0.8223   -6.1901 O.3       1 UNK         0.0000 
     20 C20         1.6118   -0.2341   -5.3476 C.2       1 UNK         0.0000 
     21 O21         1.1584   -0.1584   -4.1544 O.co2     1 UNK         0.0000 
     22 C22         2.0932   -1.6582   -5.9708 C.3       1 UNK         0.0000 
     23 C23         1.5957   -2.9289   -5.1067 C.3       1 UNK         0.0000 
     24 O24         2.4796   -2.4147   -4.1198 O.co2     1 UNK         0.0000 
     25 C25         0.0020   -2.7857   -5.0470 C.2       1 UNK         0.0000 
     26 O26        -0.4278   -2.3323   -3.9458 O.co2     1 UNK         0.0000 
     27 O27        -0.6675   -2.8679   -6.1005 O.co2     1 UNK         0.0000 
     28 C28         1.9514   -4.3847   -4.5172 C.3       1 UNK         0.0000 
     29 C29         1.5104   -4.6691   -2.9829 C.2       1 UNK         0.0000 
     30 O30         1.2539   -3.6962   -2.1608 O.co2     1 UNK         0.0000 
     31 O31         1.4280   -5.8758   -2.6715 O.co2     1 UNK         0.0000 
     32 H32         2.4513   -0.5018    2.3869 H         1 UNK         0.0000 
     33 H33         4.1836   -0.3355    2.1023 H         1 UNK         0.0000 
     34 H34         2.7002   -2.1745    0.6923 H         1 UNK         0.0000 
     35 H35         4.0634   -1.3244   -0.0009 H         1 UNK         0.0000 
     36 H36         3.9177    3.3228   -0.3828 H         1 UNK         0.0000 
     37 H37         3.0242    4.0868   -1.6819 H         1 UNK         0.0000 
     38 H38         3.9520    2.5952   -1.9892 H         1 UNK         0.0000 
     39 H39         2.4609    2.8166   -3.4637 H         1 UNK         0.0000 
     40 H40         0.2120    3.5734   -4.6970 H         1 UNK         0.0000 
     41 H41        -0.2351    1.9281   -4.4511 H         1 UNK         0.0000 
     42 H42         2.2283    2.8147   -6.0378 H         1 UNK         0.0000 
     43 H43         0.6762    2.4251   -6.7274 H         1 UNK         0.0000 
     44 H44         3.1742   -1.6478   -6.1392 H         1 UNK         0.0000 
     45 H45         1.6651   -1.7458   -6.9680 H         1 UNK         0.0000 
     46 H46         2.9965   -4.6793   -4.6334 H         1 UNK         0.0000 
     47 H47         1.3929   -5.1278   -5.0897 H         1 UNK         0.0000 
     48 Fe48        1.1607   -1.7529   -2.8242 Fe        1 UNK         0.0000 
@<TRIPOS>BOND
     1    1    2 1    
     2    1   48 nc   
     3    2    3 2    
     4    2    4 1    
     5    4    5 1    
     6    4    6 1    
     7    4   10 1    
     8    5   48 nc   
     9    6    7 am   BACKBONE|DICT|INTERRES
    10    6   11 1    
    11    7    8 2    
    12    7    9 1    
    13    9   10 1    
    14    9   32 1    
    15    9   33 1    
    16   10   34 1    
    17   10   35 1    
    18   11   12 1    
    19   11   13 1    
    20   11   14 1    
    21   13   36 1    
    22   13   37 1    
    23   13   38 1    
    24   14   15 2    
    25   14   16 am   BACKBONE|DICT|INTERRES
    26   16   17 1    
    27   16   39 1    
    28   17   18 1    
    29   17   40 1    
    30   17   41 1    
    31   18   19 1    
    32   18   42 1    
    33   18   43 1    
    34   19   20 1    
    35   20   21 2    
    36   20   22 1    
    37   21   48 nc   
    38   22   23 1    
    39   22   44 1    
    40   22   45 1    
    41   23   24 1    
    42   23   25 1    
    43   23   28 1    
    44   24   48 nc   
    45   25   26 1    
    46   25   27 2    
    47   26   48 nc   
    48   28   29 1    
    49   28   46 1    
    50   28   47 1    
    51   29   30 1    
    52   29   31 2    
    53   30   48 nc   
@<TRIPOS>SUBSTRUCTURE
     1 UNK         1 GROUP             0       ****    0 ROOT    
@<TRIPOS>MOLECULE
261_1_c1
85   94    1
SMALL
USER_CHARGES


@<TRIPOS>ATOM
      1 C1         -4.5276  -11.4625    1.8934 C.ar      1 UNK         0.0000 
      2 C2         -5.7549  -10.9219    1.5577 C.ar      1 UNK         0.0000 
      3 C3         -5.8708   -9.5572    1.3982 C.ar      1 UNK         0.0000 
      4 C4         -4.7768   -8.7327    1.6072 C.ar      1 UNK         0.0000 
      5 O5         -4.9654   -7.5240    1.3402 O.co2     1 UNK         0.0000 
      6 C6         -3.5177   -9.2422    2.0290 C.ar      1 UNK         0.0000 
      7 O7         -2.5667   -8.3929    2.2764 O.co2     1 UNK         0.0000 
      8 C8         -3.3843  -10.6655    2.1073 C.ar      1 UNK         0.0000 
      9 C9         -2.0725  -11.4335    2.2814 C.2       1 UNK         0.0000 
     10 O10        -2.0752  -12.6606    2.3881 O.2       1 UNK         0.0000 
     11 N11        -0.9166  -10.7723    2.1169 N.am      1 UNK         0.0000 
     12 C12         0.2762  -11.4834    1.6394 C.3       1 UNK         0.0000 
     13 C13         1.5258  -10.6463    1.2972 C.3       1 UNK         0.0000 
     14 C14         1.2765   -9.3047    0.5518 C.3       1 UNK         0.0000 
     15 N15         1.0255   -8.1292    1.4014 N.am      1 UNK         0.0000 
     16 C16         0.4819   -6.9667    0.9219 C.2       1 UNK         0.0000 
     17 O17         0.7443   -5.9478    1.5577 O.2       1 UNK         0.0000 
     18 C18        -0.3487   -6.7750   -0.4679 C.3       1 UNK         0.0000 
     19 H19         0.2699   -7.1826   -1.2747 H         1 UNK         0.0000 
     20 N20        -0.6237   -5.3439   -0.6594 N.2       1 UNK         0.0000 
     21 C21        -1.6335   -5.1537    0.1237 C.2       1 UNK         0.0000 
     22 O22        -2.4121   -6.3065    0.3335 O.3       1 UNK         0.0000 
     23 C23        -1.8208   -7.2374   -0.6036 C.3       1 UNK         0.0000 
     24 H24        -2.2258   -6.9643   -1.5904 H         1 UNK         0.0000 
     25 C25        -2.0832   -8.7495   -0.6150 C.3       1 UNK         0.0000 
     26 C26        -1.6625   -4.0640    1.1249 C.ar      1 UNK         0.0000 
     27 C27        -1.6808   -4.3607    2.5098 C.ar      1 UNK         0.0000 
     28 O28        -1.8775   -5.5416    2.9374 O.co2     1 UNK         0.0000 
     29 C29        -1.4799   -3.3463    3.4435 C.ar      1 UNK         0.0000 
     30 C30        -1.2542   -2.0384    3.0238 C.ar      1 UNK         0.0000 
     31 C31        -1.2348   -1.7368    1.6667 C.ar      1 UNK         0.0000 
     32 C32        -1.4150   -2.7433    0.7205 C.ar      1 UNK         0.0000 
     33 C33         1.9089   -8.0537    2.6177 C.3       1 UNK         0.0000 
     34 C34         1.3849   -8.5904    3.9921 C.3       1 UNK         0.0000 
     35 C35         0.5881   -7.6469    4.9482 C.3       1 UNK         0.0000 
     36 N36        -0.8912   -7.7488    4.9869 N.am      1 UNK         0.0000 
     37 C37        -1.6007   -7.1125    5.9634 C.2       1 UNK         0.0000 
     38 O38        -0.9996   -6.5333    6.8694 O.2       1 UNK         0.0000 
     39 C39        -3.1862   -7.1166    6.0229 C.3       1 UNK         0.0000 
     40 H40        -3.4070   -7.6093    6.9764 H         1 UNK         0.0000 
     41 N41        -3.7226   -5.7670    5.9909 N.2       1 UNK         0.0000 
     42 C42        -4.1889   -5.5838    4.8067 C.2       1 UNK         0.0000 
     43 O43        -4.1120   -6.7216    4.0054 O.3       1 UNK         0.0000 
     44 C44        -3.9086   -7.8333    4.8929 C.3       1 UNK         0.0000 
     45 H45        -3.3000   -8.6557    4.5462 H         1 UNK         0.0000 
     46 C46        -5.2917   -8.4413    5.2256 C.3       1 UNK         0.0000 
     47 C47        -4.7283   -4.3121    4.2299 C.ar      1 UNK         0.0000 
     48 C48        -4.8608   -4.0300    2.8392 C.ar      1 UNK         0.0000 
     49 O49        -4.5818   -4.8538    1.9211 O.co2     1 UNK         0.0000 
     50 C50        -5.2090   -2.7476    2.4180 C.ar      1 UNK         0.0000 
     51 C51        -5.4893   -1.7441    3.3421 C.ar      1 UNK         0.0000 
     52 C52        -5.3916   -2.0091    4.7006 C.ar      1 UNK         0.0000 
     53 C53        -4.9995   -3.2711    5.1364 C.ar      1 UNK         0.0000 
     54 H54        -4.4587  -12.5390    1.9507 H         1 UNK         0.0000 
     55 H55        -6.6031  -11.5552    1.3804 H         1 UNK         0.0000 
     56 H56        -6.8139   -9.1282    1.0743 H         1 UNK         0.0000 
     57 H57        -1.0091   -9.7643    2.1927 H         1 UNK         0.0000 
     58 H58        -0.0076  -12.0198    0.7269 H         1 UNK         0.0000 
     59 H59         0.5609  -12.2399    2.3826 H         1 UNK         0.0000 
     60 H60         2.1450  -11.2761    0.6560 H         1 UNK         0.0000 
     61 H61         2.1311  -10.5392    2.1953 H         1 UNK         0.0000 
     62 H62         0.4983   -9.4540   -0.1940 H         1 UNK         0.0000 
     63 H63         2.1832   -9.0869   -0.0150 H         1 UNK         0.0000 
     64 H64        -1.6050   -9.2640    0.2053 H         1 UNK         0.0000 
     65 H65        -1.6889   -9.2145   -1.5140 H         1 UNK         0.0000 
     66 H66        -3.1471   -8.9782   -0.6004 H         1 UNK         0.0000 
     67 H67        -1.4800   -3.5690    4.4985 H         1 UNK         0.0000 
     68 H68        -1.0938   -1.2598    3.7522 H         1 UNK         0.0000 
     69 H69        -1.0445   -0.7378    1.3298 H         1 UNK         0.0000 
     70 H70        -1.3750   -2.5112   -0.3394 H         1 UNK         0.0000 
     71 H71         2.2443   -7.0367    2.8176 H         1 UNK         0.0000 
     72 H72         2.8565   -8.5481    2.3812 H         1 UNK         0.0000 
     73 H73         2.3169   -8.7593    4.5416 H         1 UNK         0.0000 
     74 H74         0.9068   -9.5677    3.9128 H         1 UNK         0.0000 
     75 H75         0.8832   -6.5993    4.8161 H         1 UNK         0.0000 
     76 H76         0.9490   -7.8904    5.9567 H         1 UNK         0.0000 
     77 H77        -1.3573   -8.1086    4.1615 H         1 UNK         0.0000 
     78 H78        -5.9670   -7.7024    5.6431 H         1 UNK         0.0000 
     79 H79        -5.2059   -9.2577    5.9343 H         1 UNK         0.0000 
     80 H80        -5.7637   -8.8437    4.3344 H         1 UNK         0.0000 
     81 H81        -5.2204   -2.5142    1.3615 H         1 UNK         0.0000 
     82 H82        -5.7769   -0.7637    2.9926 H         1 UNK         0.0000 
     83 H83        -5.6042   -1.2580    5.4331 H         1 UNK         0.0000 
     84 H84        -4.8612   -3.4434    6.2035 H         1 UNK         0.0000 
     85 Fe85       -3.4447   -6.5347    2.1210 Fe        1 UNK         0.0000 
@<TRIPOS>BOND
     1    1    2 ar   
     2    1    8 ar   
     3    1   54 1    
     4    2    3 ar   
     5    2   55 1    
     6    3    4 ar   
     7    3   56 1    
     8    4    5 1    
     9    4    6 ar   
    10    5   85 nc   
    11    6    7 1    
    12    6    8 ar   
    13    7   85 nc   
    14    8    9 1    
    15    9   10 2    
    16    9   11 am   BACKBONE|DICT|INTERRES
    17   11   12 1    
    18   11   57 1    
    19   12   13 1    
    20   12   58 1    
    21   12   59 1    
    22   13   14 1    
    23   13   60 1    
    24   13   61 1    
    25   14   15 1    
    26   14   62 1    
    27   14   63 1    
    28   15   16 am   BACKBONE|DICT|INTERRES
    29   15   33 1    
    30   16   17 2    
    31   16   18 1    
    32   18   20 1    
    33   18   23 1    
    34   18   19 1    
    35   20   21 2    
    36   21   22 1    
    37   21   26 1    
    38   22   23 1    
    39   22   85 nc   
    40   23   25 1    
    41   23   24 1    
    42   25   64 1    
    43   25   65 1    
    44   25   66 1    
    45   26   27 ar   
    46   26   32 ar   
    47   27   28 1    
    48   27   29 ar   
    49   28   85 nc   
    50   29   30 ar   
    51   29   67 1    
    52   30   31 ar   
    53   30   68 1    
    54   31   32 ar   
    55   31   69 1    
    56   32   70 1    
    57   33   34 1    
    58   33   71 1    
    59   33   72 1    
    60   34   35 1    
    61   34   73 1    
    62   34   74 1    
    63   35   36 1    
    64   35   75 1    
    65   35   76 1    
    66   36   37 am   BACKBONE|DICT|INTERRES
    67   36   77 1    
    68   37   38 2    
    69   37   39 1    
    70   39   40 1    
    71   39   41 1    
    72   39   44 1    
    73   41   42 2    
    74   42   43 1    
    75   42   47 1    
    76   43   44 1    
    77   43   85 nc   
    78   44   46 1    
    79   44   45 1    
    80   46   78 1    
    81   46   79 1    
    82   46   80 1    
    83   47   48 ar   
    84   47   53 ar   
    85   48   49 1    
    86   48   50 ar   
    87   49   85 nc   
    88   50   51 ar   
    89   50   81 1    
    90   51   52 ar   
    91   51   82 1    
    92   52   53 ar   
    93   52   83 1    
    94   53   84 1    
@<TRIPOS>SUBSTRUCTURE
     1 UNK         1 GROUP             0       ****    0 ROOT    
@<TRIPOS>MOLECULE
261_2_c1
51   58    1
SMALL
USER_CHARGES


@<TRIPOS>ATOM
      1 O1         -0.5545    0.4865   -5.6035 O.co2     1 UNK         0.0000 
      2 C2          0.3619    1.3625   -5.4178 C.2       1 UNK         0.0000 
      3 O3          0.5336    2.4057   -6.0786 O.co2     1 UNK         0.0000 
      4 C4          1.1654    1.2521   -4.0754 C.3       1 UNK         0.0000 
      5 H5          1.7137    2.1859   -3.8959 H         1 UNK         0.0000 
      6 N6          2.0754    0.1184   -4.0925 N.2       1 UNK         0.0000 
      7 C7          1.3819   -0.8436   -3.6384 C.2       1 UNK         0.0000 
      8 O8          0.1161   -0.4582   -3.1897 O.3       1 UNK         0.0000 
      9 C9          0.2561    0.9538   -2.9134 C.3       1 UNK         0.0000 
     10 H10        -0.6458    1.5481   -3.0478 H         1 UNK         0.0000 
     11 C11         0.8055    1.2390   -1.4953 C.3       1 UNK         0.0000 
     12 C12         1.6672   -2.2687   -3.7813 C.ar      1 UNK         0.0000 
     13 C13         0.8916   -3.0073   -4.6953 C.ar      1 UNK         0.0000 
     14 O14        -0.0992   -2.5082   -5.2965 O.co2     1 UNK         0.0000 
     15 C15         1.2728   -4.2852   -5.0775 C.ar      1 UNK         0.0000 
     16 C16         2.4286   -4.8544   -4.5453 C.ar      1 UNK         0.0000 
     17 C17         3.1883   -4.1541   -3.6083 C.ar      1 UNK         0.0000 
     18 C18         2.8081   -2.8629   -3.2206 C.ar      1 UNK         0.0000 
     19 H19         0.1211    0.9697   -0.6972 H         1 UNK         0.0000 
     20 H20         1.0244    2.2931   -1.3677 H         1 UNK         0.0000 
     21 H21         1.7315    0.7111   -1.3009 H         1 UNK         0.0000 
     22 H22         0.7089   -4.7982   -5.8454 H         1 UNK         0.0000 
     23 H23         2.7381   -5.8229   -4.9120 H         1 UNK         0.0000 
     24 H24         4.1126   -4.5712   -3.2419 H         1 UNK         0.0000 
     25 H25         3.4314   -2.2923   -2.5405 H         1 UNK         0.0000 
     26 Fe26       -1.3432   -1.1265   -4.4831 Fe        1 UNK         0.0000 
     27 O27        -2.7950   -2.7295   -0.7703 O.co2     1 UNK         0.0000 
     28 H28        -3.9915   -0.5229   -0.8164 H         1 UNK         0.0000 
     29 O29        -2.6294   -1.6798   -5.9397 O.co2     1 UNK         0.0000 
     30 C30        -2.7954   -2.0802   -1.8244 C.2       1 UNK         0.0000 
     31 C31        -3.6054   -0.7245   -1.8238 C.3       1 UNK         0.0000 
     32 N32        -4.6723   -0.7723   -2.8014 N.2       1 UNK         0.0000 
     33 O33        -2.0659   -2.3071   -2.8675 O.co2     1 UNK         0.0000 
     34 C34        -3.8288   -1.3875   -6.1546 C.ar      1 UNK         0.0000 
     35 H35        -3.3692    2.0841   -0.9739 H         1 UNK         0.0000 
     36 H36        -4.2568    2.0664   -2.4710 H         1 UNK         0.0000 
     37 H37        -3.7847   -2.5530   -7.9476 H         1 UNK         0.0000 
     38 C38        -4.1057   -0.4160   -3.8852 C.2       1 UNK         0.0000 
     39 C39        -3.2792    1.8805   -2.0368 C.3       1 UNK         0.0000 
     40 C40        -2.7726    0.4359   -2.2905 C.3       1 UNK         0.0000 
     41 C41        -4.3947   -1.9339   -7.3004 C.ar      1 UNK         0.0000 
     42 C42        -4.6208   -0.6792   -5.2289 C.ar      1 UNK         0.0000 
     43 O43        -2.8025    0.0725   -3.6898 O.3       1 UNK         0.0000 
     44 H44        -1.8204    0.3354   -1.7821 H         1 UNK         0.0000 
     45 H45        -2.6141    2.6462   -2.4328 H         1 UNK         0.0000 
     46 C46        -5.7530   -1.7695   -7.5540 C.ar      1 UNK         0.0000 
     47 C47        -5.9808   -0.5035   -5.5065 C.ar      1 UNK         0.0000 
     48 H48        -6.1741   -2.2401   -8.4317 H         1 UNK         0.0000 
     49 C49        -6.5485   -1.0477   -6.6647 C.ar      1 UNK         0.0000 
     50 H50        -6.6157   -0.0253   -4.7669 H         1 UNK         0.0000 
     51 H51        -7.6083   -0.9588   -6.8275 H         1 UNK         0.0000 
@<TRIPOS>BOND
     1    1    2 1    
     2    1   26 nc   
     3    2    3 2    
     4    2    4 1    
     5    4    6 1    
     6    4    9 1    
     7    4    5 1    
     8    6    7 2    
     9    7    8 1    
    10    7   12 1    
    11    8    9 1    
    12    8   26 nc   
    13    9   10 1    
    14    9   11 1    
    15   11   19 1    
    16   11   20 1    
    17   11   21 1    
    18   12   13 ar   
    19   12   18 ar   
    20   13   14 1    
    21   13   15 ar   
    22   14   26 nc   
    23   15   16 ar   
    24   15   22 1    
    25   16   17 ar   
    26   16   23 1    
    27   17   18 ar   
    28   17   24 1    
    29   18   25 1    
    30   26   29 nc   
    31   26   33 nc   
    32   26   43 nc   
    33   27   30 2    
    34   28   31 1    
    35   29   34 1    
    36   30   31 1    
    37   30   33 1    
    38   31   32 1    
    39   31   40 1    
    40   32   38 2    
    41   34   41 ar   
    42   34   42 ar   
    43   35   39 1    
    44   36   39 1    
    45   37   41 1    
    46   38   43 1    
    47   38   42 1    
    48   39   45 1    
    49   39   40 1    
    50   40   44 1    
    51   40   43 1    
    52   41   46 ar   
    53   42   47 ar   
    54   46   49 ar   
    55   46   48 1    
    56   47   50 1    
    57   47   49 ar   
    58   49   51 1    
@<TRIPOS>SUBSTRUCTURE
     1 UNK         1 GROUP             0       ****    0 ROOT    
@<TRIPOS>MOLECULE
261_3_c1
125   134    1
SMALL
USER_CHARGES


@<TRIPOS>ATOM
      1 C1         -5.3119   -2.4137   -1.1078 C.ar      1 UNK         0.0000 
      2 C2         -4.8281   -3.7119   -1.2602 C.ar      1 UNK         0.0000 
      3 C3         -5.7218   -4.7745   -1.3646 C.ar      1 UNK         0.0000 
      4 C4         -7.0932   -4.5399   -1.3486 C.ar      1 UNK         0.0000 
      5 C5         -7.5928   -3.2481   -1.2021 C.ar      1 UNK         0.0000 
      6 O6         -8.8659   -3.1457   -1.2248 O.co2     1 UNK         0.0000 
      7 C7         -6.7004   -2.1483   -1.0658 C.ar      1 UNK         0.0000 
      8 C8         -7.1672   -0.7345   -1.0094 C.2       1 UNK         0.0000 
      9 O9         -6.2458    0.2596   -1.2381 O.3       1 UNK         0.0000 
     10 C10        -6.8836    1.5224   -1.1623 C.3       1 UNK         0.0000 
     11 H11        -6.5438    2.1622   -1.9777 H         1 UNK         0.0000 
     12 C12        -6.5548    2.1661    0.2054 C.3       1 UNK         0.0000 
     13 N13        -8.3414   -0.2806   -0.8277 N.2       1 UNK         0.0000 
     14 C14        -8.3479    1.0936   -1.2431 C.3       1 UNK         0.0000 
     15 H15        -9.0034    1.6792   -0.5971 H         1 UNK         0.0000 
     16 C16        -8.9635    1.1919   -2.6779 C.2       1 UNK         0.0000 
     17 O17        -8.5242    1.9816   -3.5204 O.2       1 UNK         0.0000 
     18 N18        -9.9235    0.2859   -2.9504 N.am      1 UNK         0.0000 
     19 C19       -10.4431   -0.1444   -4.2329 C.3       1 UNK         0.0000 
     20 C20        -9.3245   -0.5607   -5.2085 C.3       1 UNK         0.0000 
     21 C21        -9.7407   -1.6290   -6.2097 C.3       1 UNK         0.0000 
     22 N22        -9.8692   -3.0012   -5.5085 N.4       1 UNK         0.0000 
     23 H23        -9.0921   -3.1456   -4.8685 H         1 UNK         0.0000 
     24 H24       -10.6721   -3.0222   -4.8783 H         1 UNK         0.0000 
     25 C25        -9.9688   -4.1298   -6.5649 C.3       1 UNK         0.0000 
     26 C26        -9.9515   -5.5309   -5.9243 C.3       1 UNK         0.0000 
     27 C27       -11.2668   -5.9630   -5.2417 C.3       1 UNK         0.0000 
     28 N28       -11.7766   -4.9710   -4.3048 N.am      1 UNK         0.0000 
     29 C29       -12.8470   -4.1867   -4.4442 C.2       1 UNK         0.0000 
     30 O30       -13.5588   -4.2116   -5.4493 O.2       1 UNK         0.0000 
     31 C31       -12.9260   -3.0799   -3.3990 C.ar      1 UNK         0.0000 
     32 C32       -12.1301   -3.0715   -2.2118 C.ar      1 UNK         0.0000 
     33 O33       -11.5068   -4.1153   -1.7639 O.co2     1 UNK         0.0000 
     34 C34       -12.0620   -1.8662   -1.4723 C.ar      1 UNK         0.0000 
     35 O35       -11.2850   -1.7225   -0.4809 O.co2     1 UNK         0.0000 
     36 C36       -12.8898   -0.7924   -1.7775 C.ar      1 UNK         0.0000 
     37 C37       -13.7596   -0.8581   -2.8599 C.ar      1 UNK         0.0000 
     38 C38       -13.7629   -1.9832   -3.6725 C.ar      1 UNK         0.0000 
     39 H39        -4.6041   -1.5971   -1.0268 H         1 UNK         0.0000 
     40 H40        -3.7657   -3.8976   -1.2939 H         1 UNK         0.0000 
     41 H41        -5.3891   -5.7970   -1.4472 H         1 UNK         0.0000 
     42 H42        -7.7923   -5.3681   -1.4147 H         1 UNK         0.0000 
     43 H43        -6.9031    1.5172    1.0139 H         1 UNK         0.0000 
     44 H44        -7.0720    3.1181    0.3204 H         1 UNK         0.0000 
     45 H45        -5.4889    2.3329    0.3462 H         1 UNK         0.0000 
     46 H46       -10.1623   -0.3050   -2.1418 H         1 UNK         0.0000 
     47 H47       -11.0350   -1.0167   -3.9647 H         1 UNK         0.0000 
     48 H48       -11.1550    0.5445   -4.6906 H         1 UNK         0.0000 
     49 H49        -8.4481   -0.9271   -4.6645 H         1 UNK         0.0000 
     50 H50        -8.9799    0.3273   -5.7408 H         1 UNK         0.0000 
     51 H51        -8.9586   -1.7452   -6.9699 H         1 UNK         0.0000 
     52 H52       -10.6882   -1.4110   -6.7137 H         1 UNK         0.0000 
     53 H53        -9.0977   -3.9972   -7.2124 H         1 UNK         0.0000 
     54 H54       -10.8713   -3.9321   -7.1523 H         1 UNK         0.0000 
     55 H55        -9.1396   -5.5868   -5.1962 H         1 UNK         0.0000 
     56 H56        -9.6947   -6.2693   -6.6856 H         1 UNK         0.0000 
     57 H57       -11.1276   -6.8988   -4.7003 H         1 UNK         0.0000 
     58 H58       -12.0158   -6.1497   -6.0120 H         1 UNK         0.0000 
     59 H59       -11.4590   -4.8862   -3.3174 H         1 UNK         0.0000 
     60 H60       -12.8868    0.0791   -1.1338 H         1 UNK         0.0000 
     61 H61       -14.4072   -0.0305   -3.0778 H         1 UNK         0.0000 
     62 H62       -14.4117   -2.0114   -4.5375 H         1 UNK         0.0000 
     63 H63       -15.1284   -9.4859    0.6778 H         1 UNK         0.0000 
     64 C64       -15.1344   -9.2373    1.7366 C.3       1 UNK         0.0000 
     65 H65       -15.1532  -10.1650    2.3039 H         1 UNK         0.0000 
     66 H66       -16.0612   -8.7005    1.9460 H         1 UNK         0.0000 
     67 O67        -9.7679   -5.3998    0.5197 O.co2     1 UNK         0.0000 
     68 C68       -13.9044   -8.3775    2.1177 C.3       1 UNK         0.0000 
     69 H69       -12.9736   -8.8926    1.8706 H         1 UNK         0.0000 
     70 O70       -13.9721   -7.1548    1.4099 O.3       1 UNK         0.0000 
     71 H71       -14.7311   -8.4276    4.1491 H         1 UNK         0.0000 
     72 C72       -13.9842   -7.8819    3.5662 C.3       1 UNK         0.0000 
     73 C73        -8.8847   -5.1592    1.4118 C.ar      1 UNK         0.0000 
     74 H74        -7.9548   -7.0594    1.0666 H         1 UNK         0.0000 
     75 H75       -10.7053   -7.9370    6.3079 H         1 UNK         0.0000 
     76 N76       -12.4504   -7.1799    5.3527 N.am      1 UNK         0.0000 
     77 H77       -13.1293   -6.4272    5.2889 H         1 UNK         0.0000 
     78 C78       -12.6718   -8.0826    4.3844 C.2       1 UNK         0.0000 
     79 C79        -7.9242   -6.1385    1.6349 C.ar      1 UNK         0.0000 
     80 O80        -9.5986   -2.9780    1.7337 O.co2     1 UNK         0.0000 
     81 H81       -16.7038   -5.1480    2.0125 H         1 UNK         0.0000 
     82 C82       -11.1961   -6.9877    6.0624 C.3       1 UNK         0.0000 
     83 C83       -14.2725   -6.1360    2.2777 C.2       1 UNK         0.0000 
     84 O84       -11.9109   -9.0346    4.1833 O.2       1 UNK         0.0000 
     85 C85        -8.7987   -3.9117    2.0775 C.ar      1 UNK         0.0000 
     86 H86       -10.0008   -6.6174    4.2880 H         1 UNK         0.0000 
     87 N87       -14.3797   -6.4889    3.5051 N.2       1 UNK         0.0000 
     88 H88        -8.3895   -6.4715    6.2988 H         1 UNK         0.0000 
     89 C89       -15.9379   -4.4298    1.7237 C.ar      1 UNK         0.0000 
     90 C90       -10.2707   -6.0932    5.2066 C.3       1 UNK         0.0000 
     91 C91        -8.9800   -5.6537    5.8826 C.3       1 UNK         0.0000 
     92 C92       -14.5760   -4.8075    1.7228 C.ar      1 UNK         0.0000 
     93 C93        -6.8738   -5.8971    2.5066 C.ar      1 UNK         0.0000 
     94 H94       -11.4218   -6.5410    7.0322 H         1 UNK         0.0000 
     95 C95       -16.3121   -3.1264    1.4128 C.ar      1 UNK         0.0000 
     96 H96       -17.3567   -2.8452    1.4375 H         1 UNK         0.0000 
     97 C97        -7.7841   -3.6861    3.0399 C.ar      1 UNK         0.0000 
     98 H98        -8.3685   -5.0844    5.1888 H         1 UNK         0.0000 
     99 H99        -8.1466   -3.9088    8.6138 H         1 UNK         0.0000 
    100 H100       -9.7105   -5.2025    7.7881 H         1 UNK         0.0000 
    101 H101       -6.1193   -6.6462    2.6386 H         1 UNK         0.0000 
    102 N102       -9.3120   -4.6788    7.0197 N.4       1 UNK         0.0000 
    103 H103      -10.8121   -5.2096    4.8499 H         1 UNK         0.0000 
    104 C104      -13.5830   -3.8672    1.3290 C.ar      1 UNK         0.0000 
    105 C105       -8.1413   -3.8154    7.5267 C.3       1 UNK         0.0000 
    106 H106       -6.1222   -3.0895    4.8358 H         1 UNK         0.0000 
    107 C107       -6.7972   -4.6905    3.1860 C.ar      1 UNK         0.0000 
    108 C108      -15.3229   -2.1833    1.1417 C.ar      1 UNK         0.0000 
    109 N109       -6.9399   -2.5305    5.0139 N.am      1 UNK         0.0000 
    110 O110      -12.3285   -4.1350    1.2263 O.co2     1 UNK         0.0000 
    111 C111       -7.7814   -2.4607    3.9731 C.2       1 UNK         0.0000 
    112 C112      -13.9733   -2.5491    1.1217 C.ar      1 UNK         0.0000 
    113 H113      -10.0249   -4.0618    6.6390 H         1 UNK         0.0000 
    114 H114       -7.2228   -4.2638    7.1354 H         1 UNK         0.0000 
    115 C115       -8.3431   -2.3560    7.0745 C.3       1 UNK         0.0000 
    116 H116       -8.5274   -1.7164    7.9386 H         1 UNK         0.0000 
    117 H117       -5.9652   -4.5536    3.8520 H         1 UNK         0.0000 
    118 H118      -15.5695   -1.1537    0.9498 H         1 UNK         0.0000 
    119 C119       -7.1419   -1.7935    6.2669 C.3       1 UNK         0.0000 
    120 O120       -8.6021   -1.5396    3.9589 O.2       1 UNK         0.0000 
    121 H121      -13.1994   -1.8067    0.9688 H         1 UNK         0.0000 
    122 H122       -7.3098   -0.7312    6.0690 H         1 UNK         0.0000 
    123 H123       -9.2591   -2.2769    6.4790 H         1 UNK         0.0000 
    124 H124       -6.2208   -1.8516    6.8547 H         1 UNK         0.0000 
    125 Fe125     -10.5737   -3.5727    0.0206 Fe        1 UNK         0.0000 
@<TRIPOS>BOND
     1    1    2 ar   
     2    1    7 ar   
     3    1   39 1    
     4    2    3 ar   
     5    2   40 1    
     6    3    4 ar   
     7    3   41 1    
     8    4    5 ar   
     9    4   42 1    
    10    5    6 1    
    11    5    7 ar   
    12    6  125 nc   
    13    7    8 1    
    14    8    9 1    
    15    8   13 2    
    16    9   10 1    
    17   10   14 1    
    18   10   12 1    
    19   10   11 1    
    20   12   43 1    
    21   12   44 1    
    22   12   45 1    
    23   13   14 1    
    24   14   15 1    
    25   14   16 1    
    26   16   17 2    
    27   16   18 am   BACKBONE|DICT|INTERRES
    28   18   19 1    
    29   18   46 1    
    30   19   20 1    
    31   19   47 1    
    32   19   48 1    
    33   20   21 1    
    34   20   49 1    
    35   20   50 1    
    36   21   22 1    
    37   21   51 1    
    38   21   52 1    
    39   22   23 1    
    40   22   24 1    
    41   22   25 1    
    42   25   26 1    
    43   25   53 1    
    44   25   54 1    
    45   26   27 1    
    46   26   55 1    
    47   26   56 1    
    48   27   28 1    
    49   27   57 1    
    50   27   58 1    
    51   28   29 am   BACKBONE|DICT|INTERRES
    52   28   59 1    
    53   29   30 2    
    54   29   31 1    
    55   31   32 ar   
    56   31   38 ar   
    57   32   33 1    
    58   32   34 ar   
    59   33  125 nc   
    60   34   35 1    
    61   34   36 ar   
    62   35  125 nc   
    63   36   37 ar   
    64   36   60 1    
    65   37   38 ar   
    66   37   61 1    
    67   38   62 1    
    68   63   64 1    
    69   64   66 1    
    70   64   65 1    
    71   64   68 1    
    72   67   73 1    
    73   67  125 nc   
    74   68   72 1    
    75   68   69 1    
    76   68   70 1    
    77   70   83 1    
    78   71   72 1    
    79   72   78 1    
    80   72   87 1    
    81   73   79 ar   
    82   73   85 ar   
    83   74   79 1    
    84   75   82 1    
    85   76   82 1    
    86   76   77 1    
    87   76   78 am   BACKBONE|DICT|INTERRES
    88   78   84 2    
    89   79   93 ar   
    90   80   85 1    
    91   80  125 nc   
    92   81   89 1    
    93   82   90 1    
    94   82   94 1    
    95   83   87 2    
    96   83   92 1    
    97   85   97 ar   
    98   86   90 1    
    99   88   91 1    
   100   89   95 ar   
   101   89   92 ar   
   102   90   91 1    
   103   90  103 1    
   104   91  102 1    
   105   91   98 1    
   106   92  104 ar   
   107   93  107 ar   
   108   93  101 1    
   109   95  108 ar   
   110   95   96 1    
   111   97  107 ar   
   112   97  111 1    
   113   99  105 1    
   114  100  102 1    
   115  102  113 1    
   116  102  105 1    
   117  104  110 1    
   118  104  112 ar   
   119  105  115 1    
   120  105  114 1    
   121  106  109 1    
   122  107  117 1    
   123  108  112 ar   
   124  108  118 1    
   125  109  111 am   BACKBONE|DICT|INTERRES
   126  109  119 1    
   127  110  125 nc   
   128  111  120 2    
   129  112  121 1    
   130  115  119 1    
   131  115  116 1    
   132  115  123 1    
   133  119  124 1    
   134  119  122 1    
@<TRIPOS>SUBSTRUCTURE
     1 UNK         1 GROUP             0       ****    0 ROOT    
@<TRIPOS>MOLECULE
262_c1
56   64    1
SMALL
USER_CHARGES


@<TRIPOS>ATOM
      1 C1         -9.1390   -3.2378   -5.8163 C.ar      1 UNK         0.0000 
      2 C2         -9.9261   -3.4996   -6.9385 C.ar      1 UNK         0.0000 
      3 C3         -9.5848   -2.9655   -8.1697 C.ar      1 UNK         0.0000 
      4 C4         -8.4387   -2.1889   -8.2999 C.ar      1 UNK         0.0000 
      5 C5         -7.6308   -1.9238   -7.1911 C.ar      1 UNK         0.0000 
      6 O6         -6.5951   -1.2278   -7.4459 O.co2     1 UNK         0.0000 
      7 C7         -7.9897   -2.4333   -5.9036 C.ar      1 UNK         0.0000 
      8 C8         -7.2236   -2.1329   -4.6591 C.2       1 UNK         0.0000 
      9 S9         -7.7201   -2.7116   -3.0216 S.3       1 UNK         0.0000 
     10 C10        -6.5621   -1.5347   -2.2722 C.3       1 UNK         0.0000 
     11 N11        -6.1865   -1.3966   -4.6414 N.pl3     1 UNK         0.0000 
     12 C12        -5.5295   -1.2794   -3.3729 C.3       1 UNK         0.0000 
     13 H13        -4.8136   -2.1078   -3.3310 H         1 UNK         0.0000 
     14 C14        -4.7371    0.0707   -3.3066 C.3       1 UNK         0.0000 
     15 H15        -5.3919    0.8533   -2.9168 H         1 UNK         0.0000 
     16 S16        -3.3403   -0.0561   -2.1919 S.3       1 UNK         0.0000 
     17 C17        -2.3375   -0.7460   -3.5167 C.3       1 UNK         0.0000 
     18 N18        -4.1772    0.5530   -4.5919 N.3       1 UNK         0.0000 
     19 C19        -2.7833    0.0460   -4.7711 C.3       1 UNK         0.0000 
     20 H20        -2.1314    0.9237   -4.7855 H         1 UNK         0.0000 
     21 C21        -2.6330   -0.7244   -6.1377 C.3       1 UNK         0.0000 
     22 H22        -1.7320   -1.3451   -6.0463 H         1 UNK         0.0000 
     23 O23        -3.7427   -1.5687   -6.3305 O.co2     1 UNK         0.0000 
     24 C24        -2.3301    0.2329   -7.4077 C.3       1 UNK         0.0000 
     25 C25        -0.9488    0.9464   -7.3191 C.3       1 UNK         0.0000 
     26 C26        -2.2391   -0.6454   -8.6996 C.3       1 UNK         0.0000 
     27 C27        -3.4500    1.3007   -7.6869 C.2       1 UNK         0.0000 
     28 S28        -3.1785    2.8693   -8.5192 S.3       1 UNK         0.0000 
     29 C29        -4.7863    3.4119   -7.9046 C.3       1 UNK         0.0000 
     30 N30        -4.6887    1.0192   -7.5260 N.pl3     1 UNK         0.0000 
     31 C31        -5.6160    2.1162   -7.8140 C.3       1 UNK         0.0000 
     32 C32        -6.3519    1.8225   -9.1482 C.3       1 UNK         0.0000 
     33 C33        -6.6615    2.2346   -6.6452 C.2       1 UNK         0.0000 
     34 O34        -6.7072    1.2296   -5.8479 O.co2     1 UNK         0.0000 
     35 O35        -7.2452    3.3121   -6.4456 O.co2     1 UNK         0.0000 
     36 H36        -9.4626   -3.6782   -4.8822 H         1 UNK         0.0000 
     37 H37       -10.8115   -4.1121   -6.8563 H         1 UNK         0.0000 
     38 H38       -10.2116   -3.1522   -9.0346 H         1 UNK         0.0000 
     39 H39        -8.1666   -1.7955   -9.2725 H         1 UNK         0.0000 
     40 H40        -6.1130   -1.9614   -1.3695 H         1 UNK         0.0000 
     41 H41        -7.1334   -0.6400   -2.0069 H         1 UNK         0.0000 
     42 H42        -2.5609   -1.8156   -3.5676 H         1 UNK         0.0000 
     43 H43        -1.2707   -0.6263   -3.3016 H         1 UNK         0.0000 
     44 H44        -3.9928    1.5385   -4.3544 H         1 UNK         0.0000 
     45 H45        -0.1343    0.2535   -7.0920 H         1 UNK         0.0000 
     46 H46        -0.9292    1.7446   -6.5745 H         1 UNK         0.0000 
     47 H47        -0.6706    1.4112   -8.2678 H         1 UNK         0.0000 
     48 H48        -1.4564   -1.4077   -8.6252 H         1 UNK         0.0000 
     49 H49        -2.0063   -0.0558   -9.5912 H         1 UNK         0.0000 
     50 H50        -3.1754   -1.1724   -8.9222 H         1 UNK         0.0000 
     51 H51        -5.2374    4.1483   -8.5728 H         1 UNK         0.0000 
     52 H52        -4.6199    3.8675   -6.9196 H         1 UNK         0.0000 
     53 H53        -5.6699    1.7002   -9.9932 H         1 UNK         0.0000 
     54 H54        -7.0179    2.6523   -9.3883 H         1 UNK         0.0000 
     55 H55        -6.9645    0.9193   -9.0887 H         1 UNK         0.0000 
     56 Fe56       -5.3878   -0.3245   -6.1606 Fe        1 UNK         0.0000 
@<TRIPOS>BOND
     1    1    2 ar   
     2    1    7 ar   
     3    1   36 1    
     4    2    3 ar   
     5    2   37 1    
     6    3    4 ar   
     7    3   38 1    
     8    4    5 ar   
     9    4   39 1    
    10    5    6 1    
    11    5    7 ar   
    12    6   56 nc   
    13    7    8 1    
    14    8    9 1    
    15    8   11 2    
    16    9   10 1    
    17   10   12 1    
    18   10   40 1    
    19   10   41 1    
    20   11   12 1    
    21   11   56 nc   
    22   12   14 1    
    23   12   13 1    
    24   14   16 1    
    25   14   18 1    
    26   14   15 1    
    27   16   17 1    
    28   17   19 1    
    29   17   42 1    
    30   17   43 1    
    31   18   19 1    
    32   18   44 1    
    33   18   56 nc   
    34   19   20 1    
    35   19   21 1    
    36   21   22 1    
    37   21   23 1    
    38   21   24 1    
    39   23   56 nc   
    40   24   25 1    
    41   24   26 1    
    42   24   27 1    
    43   25   45 1    
    44   25   46 1    
    45   25   47 1    
    46   26   48 1    
    47   26   49 1    
    48   26   50 1    
    49   27   28 1    
    50   27   30 2    
    51   28   29 1    
    52   29   31 1    
    53   29   51 1    
    54   29   52 1    
    55   30   31 1    
    56   30   56 nc   
    57   31   33 1    
    58   31   32 1    
    59   32   53 1    
    60   32   54 1    
    61   32   55 1    
    62   33   34 1    
    63   33   35 2    
    64   34   56 nc   
@<TRIPOS>SUBSTRUCTURE
     1 UNK         1 GROUP             0       ****    0 ROOT    
@<TRIPOS>MOLECULE
263_C_c1
141   146    1
SMALL
USER_CHARGES


@<TRIPOS>ATOM
      1 C1         31.4312    9.7612   10.3735 C.3       1 UNK         0.0000 
      2 C2         30.5434    8.5983   10.8219 C.2       1 UNK         0.0000 
      3 O3         29.9297    8.6686   11.8946 O.co2     1 UNK         0.0000 
      4 N4         30.4186    7.4312   10.1424 N.am      1 UNK         0.0000 
      5 O5         30.0125    6.3097   10.7860 O.co2     1 UNK         0.0000 
      6 C6         30.4882    7.3063    8.6507 C.3       1 UNK         0.0000 
      7 C7         29.7498    8.3673    7.7227 C.3       1 UNK         0.0000 
      8 C8         28.2515    8.2300    7.2163 C.3       1 UNK         0.0000 
      9 C9         27.0686    8.0572    8.2332 C.3       1 UNK         0.0000 
     10 H10        26.8389    6.9878    8.2812 H         1 UNK         0.0000 
     11 C11        27.5149    8.5295    9.6431 C.2       1 UNK         0.0000 
     12 O12        27.5630    7.5700   10.4503 O.co2     1 UNK         0.0000 
     13 O13        27.7987    9.7403    9.7647 O.co2     1 UNK         0.0000 
     14 N14        25.8076    8.8142    8.0027 N.am      1 UNK         0.0000 
     15 C15        24.6849    8.4590    8.6690 C.2       1 UNK         0.0000 
     16 O16        24.3551    7.2901    8.8528 O.2       1 UNK         0.0000 
     17 C17        23.8385    9.5236    9.3979 C.3       1 UNK         0.0000 
     18 H18        22.8260    9.3581    9.0276 H         1 UNK         0.0000 
     19 C19        24.1661   11.0193    9.1306 C.3       1 UNK         0.0000 
     20 O20        23.9081   11.3788    7.7839 O.3       1 UNK         0.0000 
     21 N21        23.7824    9.1680   10.8353 N.am      1 UNK         0.0000 
     22 C22        24.4567    9.6711   11.8959 C.2       1 UNK         0.0000 
     23 O23        25.1010   10.7172   11.8706 O.2       1 UNK         0.0000 
     24 C24        24.2843    8.8738   13.2176 C.3       1 UNK         0.0000 
     25 H25        23.2035    8.8949   13.3736 H         1 UNK         0.0000 
     26 C26        24.8784    9.5138   14.5479 C.3       1 UNK         0.0000 
     27 C27        26.1462   10.4339   14.6932 C.3       1 UNK         0.0000 
     28 C28        27.6223   10.0482   14.3233 C.3       1 UNK         0.0000 
     29 N29        27.9846    8.6391   14.0795 N.am      1 UNK         0.0000 
     30 O30        27.3061    8.1706   13.0657 O.co2     1 UNK         0.0000 
     31 C31        29.0707    7.9814   14.5684 C.2       1 UNK         0.0000 
     32 O32        29.5000    7.0021   13.9169 O.co2     1 UNK         0.0000 
     33 C33        29.7894    8.4770   15.8189 C.3       1 UNK         0.0000 
     34 N34        24.5686    7.4475   12.9425 N.am      1 UNK         0.0000 
     35 C35        24.8607    6.4413   13.7900 C.2       1 UNK         0.0000 
     36 O36        24.7314    6.4936   15.0156 O.2       1 UNK         0.0000 
     37 C37        25.1921    5.0561   13.1840 C.3       1 UNK         0.0000 
     38 H38        25.5703    4.4904   14.0330 H         1 UNK         0.0000 
     39 C39        26.3346    4.9394   12.0953 C.3       1 UNK         0.0000 
     40 O40        27.6695    5.2379   12.4685 O.co2     1 UNK         0.0000 
     41 N41        23.8765    4.4294   12.9439 N.am      1 UNK         0.0000 
     42 C42        23.1391    4.1419   11.8546 C.2       1 UNK         0.0000 
     43 O43        23.5231    4.2070   10.6946 O.2       1 UNK         0.0000 
     44 C44        21.6702    3.7437   12.1334 C.3       1 UNK         0.0000 
     45 H45        21.3200    3.3422   11.1815 H         1 UNK         0.0000 
     46 C46        20.8746    5.0490   12.4581 C.3       1 UNK         0.0000 
     47 C47        19.3504    4.8817   12.5680 C.2       1 UNK         0.0000 
     48 O48        18.8087    5.0283   13.6656 O.2       1 UNK         0.0000 
     49 C49        18.5443    4.4708   11.3366 C.3       1 UNK         0.0000 
     50 H50        17.7738    5.2441   11.2939 H         1 UNK         0.0000 
     51 C51        17.8081    3.1032   11.5913 C.3       1 UNK         0.0000 
     52 H52        17.4605    3.0020   12.6174 H         1 UNK         0.0000 
     53 O53        16.6253    3.1310   10.7797 O.3       1 UNK         0.0000 
     54 C54        18.6693    1.8467   11.2241 C.2       1 UNK         0.0000 
     55 O55        18.4430    1.2468   10.1766 O.2       1 UNK         0.0000 
     56 N56        19.6611    1.3834   12.0003 N.am      1 UNK         0.0000 
     57 C57        20.1754    1.8603   13.2914 C.3       1 UNK         0.0000 
     58 C58        21.5472    2.5802   13.1722 C.3       1 UNK         0.0000 
     59 N59        19.3608    4.5427   10.0809 N.3       1 UNK         0.0000 
     60 C60        18.7117    5.2486    8.9814 C.3       1 UNK         0.0000 
     61 C61        19.6145    5.3002    7.7452 C.2       1 UNK         0.0000 
     62 O62        19.8073    4.2803    7.0843 O.2       1 UNK         0.0000 
     63 C63        20.2492    6.6500    7.3882 C.3       1 UNK         0.0000 
     64 C64        20.1052    7.0761    5.9060 C.3       1 UNK         0.0000 
     65 C65        20.9280    6.2248    4.9185 C.3       1 UNK         0.0000 
     66 C66        20.8378    6.7414    3.4785 C.3       1 UNK         0.0000 
     67 C67        21.6022    5.8403    2.4925 C.3       1 UNK         0.0000 
     68 C68        21.4122    6.2754    1.0301 C.3       1 UNK         0.0000 
     69 C69        22.0234    5.2815    0.0248 C.3       1 UNK         0.0000 
     70 C70        21.5101    5.4954   -1.4141 C.3       1 UNK         0.0000 
     71 C71        22.0614    6.7428   -2.1382 C.3       1 UNK         0.0000 
     72 C72        23.4601    6.5282   -2.7507 C.3       1 UNK         0.0000 
     73 C73        23.8686    7.6755   -3.7002 C.3       1 UNK         0.0000 
     74 C74        25.0875    7.3538   -4.5886 C.3       1 UNK         0.0000 
     75 C75        26.4072    7.1799   -3.8129 C.3       1 UNK         0.0000 
     76 H76        31.1418   10.2143    9.4356 H         1 UNK         0.0000 
     77 H77        32.4580    9.4203   10.3017 H         1 UNK         0.0000 
     78 H78        31.3769   10.5454   11.1234 H         1 UNK         0.0000 
     79 H79        30.1447    6.3125    8.3489 H         1 UNK         0.0000 
     80 H80        31.5590    7.3146    8.4017 H         1 UNK         0.0000 
     81 H81        30.3338    8.3665    6.8123 H         1 UNK         0.0000 
     82 H82        29.8649    9.3811    8.0939 H         1 UNK         0.0000 
     83 H83        28.2071    7.4092    6.5084 H         1 UNK         0.0000 
     84 H84        28.0379    9.1217    6.6286 H         1 UNK         0.0000 
     85 H85        25.9541    9.8100    7.9500 H         1 UNK         0.0000 
     86 H86        25.2021   11.2530    9.3845 H         1 UNK         0.0000 
     87 H87        23.5384   11.6483    9.7622 H         1 UNK         0.0000 
     88 H88        24.2070   12.2831    7.6456 H         1 UNK         0.0000 
     89 H89        23.2696    8.3125   10.9911 H         1 UNK         0.0000 
     90 H90        24.8977    8.7951   15.3607 H         1 UNK         0.0000 
     91 H91        24.0641   10.1717   14.8659 H         1 UNK         0.0000 
     92 H92        26.1908   10.6192   15.7638 H         1 UNK         0.0000 
     93 H93        25.9286   11.4157   14.2833 H         1 UNK         0.0000 
     94 H94        28.2816   10.5124   15.0646 H         1 UNK         0.0000 
     95 H95        27.8722   10.5953   13.4129 H         1 UNK         0.0000 
     96 H96        30.2280    9.4495   15.6464 H         1 UNK         0.0000 
     97 H97        30.5818    7.7915   16.0918 H         1 UNK         0.0000 
     98 H98        29.0884    8.5437   16.6418 H         1 UNK         0.0000 
     99 H99        24.7553    7.2368   11.9727 H         1 UNK         0.0000 
    100 H100       26.0296    5.5523   11.2436 H         1 UNK         0.0000 
    101 H101       26.2546    3.9298   11.6792 H         1 UNK         0.0000 
    102 H102       23.3750    4.4254   13.8092 H         1 UNK         0.0000 
    103 H103       21.0509    5.7993   11.6826 H         1 UNK         0.0000 
    104 H104       21.2373    5.4914   13.3869 H         1 UNK         0.0000 
    105 H105       16.7804    2.5369   10.0275 H         1 UNK         0.0000 
    106 H106       20.1057    0.5668   11.6010 H         1 UNK         0.0000 
    107 H107       20.2953    0.9884   13.9381 H         1 UNK         0.0000 
    108 H108       19.4434    2.4938   13.7974 H         1 UNK         0.0000 
    109 H109       22.2782    1.8139   12.9048 H         1 UNK         0.0000 
    110 H110       21.8423    2.9359   14.1578 H         1 UNK         0.0000 
    111 H111       19.5459    3.6085    9.7121 H         1 UNK         0.0000 
    112 H112       18.4253    6.2603    9.2696 H         1 UNK         0.0000 
    113 H113       17.7982    4.7133    8.7113 H         1 UNK         0.0000 
    114 H114       21.3007    6.6079    7.6743 H         1 UNK         0.0000 
    115 H115       19.8039    7.4117    8.0252 H         1 UNK         0.0000 
    116 H116       20.4084    8.1232    5.8184 H         1 UNK         0.0000 
    117 H117       19.0510    7.0555    5.6160 H         1 UNK         0.0000 
    118 H118       20.5788    5.1929    4.9313 H         1 UNK         0.0000 
    119 H119       21.9708    6.1944    5.2398 H         1 UNK         0.0000 
    120 H120       19.7874    6.7925    3.1791 H         1 UNK         0.0000 
    121 H121       21.2202    7.7630    3.4239 H         1 UNK         0.0000 
    122 H122       21.2542    4.8110    2.6099 H         1 UNK         0.0000 
    123 H123       22.6637    5.8279    2.7488 H         1 UNK         0.0000 
    124 H124       21.8395    7.2684    0.8844 H         1 UNK         0.0000 
    125 H125       20.3423    6.3748    0.8333 H         1 UNK         0.0000 
    126 H126       21.7632    4.2646    0.3235 H         1 UNK         0.0000 
    127 H127       23.1131    5.3294    0.0614 H         1 UNK         0.0000 
    128 H128       20.4203    5.5569   -1.3963 H         1 UNK         0.0000 
    129 H129       21.7295    4.6028   -2.0033 H         1 UNK         0.0000 
    130 H130       22.0734    7.6083   -1.4726 H         1 UNK         0.0000 
    131 H131       21.3628    7.0005   -2.9362 H         1 UNK         0.0000 
    132 H132       24.1998    6.4152   -1.9573 H         1 UNK         0.0000 
    133 H133       23.4667    5.5874   -3.3072 H         1 UNK         0.0000 
    134 H134       24.0534    8.5862   -3.1251 H         1 UNK         0.0000 
    135 H135       23.0269    7.9109   -4.3557 H         1 UNK         0.0000 
    136 H136       24.8838    6.4538   -5.1709 H         1 UNK         0.0000 
    137 H137       25.2074    8.1529   -5.3198 H         1 UNK         0.0000 
    138 H138       26.3590    6.3456   -3.1136 H         1 UNK         0.0000 
    139 H139       26.6572    8.0765   -3.2446 H         1 UNK         0.0000 
    140 H140       27.2342    6.9839   -4.4938 H         1 UNK         0.0000 
    141 Fe141      28.6340    7.1091   12.0857 Fe        1 UNK         0.0000 
@<TRIPOS>BOND
     1    1    2 1    
     2    1   76 1    
     3    1   77 1    
     4    1   78 1    
     5    2    3 2    
     6    2    4 am   BACKBONE|DICT|INTERRES
     7    3  141 nc   
     8    4    5 1    
     9    4    6 1    
    10    5  141 nc   
    11    6    7 1    
    12    6   79 1    
    13    6   80 1    
    14    7    8 1    
    15    7   81 1    
    16    7   82 1    
    17    8    9 1    
    18    8   83 1    
    19    8   84 1    
    20    9   10 1    
    21    9   11 1    
    22    9   14 1    
    23   11   12 1    
    24   11   13 2    
    25   12  141 nc   
    26   14   15 am   BACKBONE|DICT|INTERRES
    27   14   85 1    
    28   15   16 2    
    29   15   17 1    
    30   17   19 1    
    31   17   21 1    
    32   17   18 1    
    33   19   20 1    
    34   19   86 1    
    35   19   87 1    
    36   20   88 1    
    37   21   22 am   BACKBONE|DICT|INTERRES
    38   21   89 1    
    39   22   23 2    
    40   22   24 1    
    41   24   26 1    
    42   24   34 1    
    43   24   25 1    
    44   26   27 1    
    45   26   90 1    
    46   26   91 1    
    47   27   28 1    
    48   27   92 1    
    49   27   93 1    
    50   28   29 1    
    51   28   94 1    
    52   28   95 1    
    53   29   30 1    
    54   29   31 am   BACKBONE|DICT|INTERRES
    55   30  141 nc   
    56   31   32 2    
    57   31   33 1    
    58   32  141 nc   
    59   33   96 1    
    60   33   97 1    
    61   33   98 1    
    62   34   35 am   BACKBONE|DICT|INTERRES
    63   34   99 1    
    64   35   36 2    
    65   35   37 1    
    66   37   39 1    
    67   37   41 1    
    68   37   38 1    
    69   39   40 1    
    70   39  100 1    
    71   39  101 1    
    72   40  141 nc   
    73   41   42 am   BACKBONE|DICT|INTERRES
    74   41  102 1    
    75   42   43 2    
    76   42   44 1    
    77   44   46 1    
    78   44   58 1    
    79   44   45 1    
    80   46   47 1    
    81   46  103 1    
    82   46  104 1    
    83   47   48 2    
    84   47   49 1    
    85   49   51 1    
    86   49   59 1    
    87   49   50 1    
    88   51   54 1    
    89   51   53 1    
    90   51   52 1    
    91   53  105 1    
    92   54   55 2    
    93   54   56 am   BACKBONE|DICT|INTERRES
    94   56   57 1    
    95   56  106 1    
    96   57   58 1    
    97   57  107 1    
    98   57  108 1    
    99   58  109 1    
   100   58  110 1    
   101   59   60 1    
   102   59  111 1    
   103   60   61 1    
   104   60  112 1    
   105   60  113 1    
   106   61   62 2    
   107   61   63 1    
   108   63   64 1    
   109   63  114 1    
   110   63  115 1    
   111   64   65 1    
   112   64  116 1    
   113   64  117 1    
   114   65   66 1    
   115   65  118 1    
   116   65  119 1    
   117   66   67 1    
   118   66  120 1    
   119   66  121 1    
   120   67   68 1    
   121   67  122 1    
   122   67  123 1    
   123   68   69 1    
   124   68  124 1    
   125   68  125 1    
   126   69   70 1    
   127   69  126 1    
   128   69  127 1    
   129   70   71 1    
   130   70  128 1    
   131   70  129 1    
   132   71   72 1    
   133   71  130 1    
   134   71  131 1    
   135   72   73 1    
   136   72  132 1    
   137   72  133 1    
   138   73   74 1    
   139   73  134 1    
   140   73  135 1    
   141   74   75 1    
   142   74  136 1    
   143   74  137 1    
   144   75  138 1    
   145   75  139 1    
   146   75  140 1    
@<TRIPOS>SUBSTRUCTURE
     1 UNK         1 GROUP             0       ****    0 ROOT    
@<TRIPOS>MOLECULE
263_D1_c1
145   150    1
SMALL
USER_CHARGES


@<TRIPOS>ATOM
      1 C1         19.5669   14.3593   15.2843 C.3       1 UNK         0.0000 
      2 C2         19.7164   12.8676   15.0973 C.2       1 UNK         0.0000 
      3 O3         20.0289   12.4174   13.9789 O.co2     1 UNK         0.0000 
      4 N4         19.4528   11.9865   16.1043 N.am      1 UNK         0.0000 
      5 O5         19.2112   10.7189   15.8634 O.co2     1 UNK         0.0000 
      6 C6         19.5442   12.2515   17.5542 C.3       1 UNK         0.0000 
      7 C7         20.0158   11.0289   18.4373 C.3       1 UNK         0.0000 
      8 C8         21.4155   10.4538   18.1112 C.3       1 UNK         0.0000 
      9 C9         21.6469    8.9105   17.9276 C.3       1 UNK         0.0000 
     10 H10        21.3277    8.3665   18.8413 H         1 UNK         0.0000 
     11 C11        20.8924    8.1938   16.7213 C.2       1 UNK         0.0000 
     12 O12        21.1367    8.6167   15.5513 O.co2     1 UNK         0.0000 
     13 O13        20.2421    7.1861   17.0505 O.co2     1 UNK         0.0000 
     14 N14        23.1015    8.7465   17.7209 N.am      1 UNK         0.0000 
     15 C15        23.9030    7.8532   18.3088 C.2       1 UNK         0.0000 
     16 O16        23.5309    7.0450   19.1550 O.2       1 UNK         0.0000 
     17 C17        25.3973    7.8668   17.8886 C.3       1 UNK         0.0000 
     18 H18        25.8269    6.9911   18.3802 H         1 UNK         0.0000 
     19 C19        26.1137    9.1377   18.4171 C.3       1 UNK         0.0000 
     20 O20        26.1139    9.2747   19.8270 O.3       1 UNK         0.0000 
     21 N21        25.7519    7.7350   16.4542 N.am      1 UNK         0.0000 
     22 C22        24.9681    7.3717   15.4211 C.2       1 UNK         0.0000 
     23 O23        23.7855    7.1155   15.5383 O.2       1 UNK         0.0000 
     24 C24        25.6131    7.2078   14.0231 C.3       1 UNK         0.0000 
     25 H25        26.6867    7.0761   14.1777 H         1 UNK         0.0000 
     26 C26        25.4320    8.4137   13.0558 C.3       1 UNK         0.0000 
     27 C27        25.7958    9.8650   13.4482 C.3       1 UNK         0.0000 
     28 C28        24.7398   10.6801   14.2502 C.3       1 UNK         0.0000 
     29 N29        23.3031   10.7856   13.8303 N.am      1 UNK         0.0000 
     30 O30        22.5223   11.1290   14.8780 O.co2     1 UNK         0.0000 
     31 C31        22.7723   10.5306   12.6016 C.2       1 UNK         0.0000 
     32 O32        21.5381   10.3665   12.5285 O.co2     1 UNK         0.0000 
     33 C33        23.5758   10.5506   11.2881 C.3       1 UNK         0.0000 
     34 N34        25.1013    5.9749   13.3846 N.am      1 UNK         0.0000 
     35 C35        23.8513    5.7442   12.9208 C.2       1 UNK         0.0000 
     36 O36        22.9435    6.5776   12.8864 O.2       1 UNK         0.0000 
     37 C37        23.5666    4.3341   12.3760 C.3       1 UNK         0.0000 
     38 H38        23.9583    3.6076   13.0891 H         1 UNK         0.0000 
     39 C39        24.2645    4.1162   11.0051 C.3       1 UNK         0.0000 
     40 O40        25.6858    4.1281   11.1016 O.3       1 UNK         0.0000 
     41 N41        22.1007    4.1651   12.3688 N.am      1 UNK         0.0000 
     42 C42        21.2448    4.0822   11.3410 C.2       1 UNK         0.0000 
     43 O43        21.5931    3.8041   10.1920 O.2       1 UNK         0.0000 
     44 C44        19.7370    4.3394   11.6177 C.3       1 UNK         0.0000 
     45 H45        19.2907    3.4884   11.1048 H         1 UNK         0.0000 
     46 C46        19.1247    5.5521   10.8360 C.3       1 UNK         0.0000 
     47 C47        19.9110    6.8833   10.8310 C.2       1 UNK         0.0000 
     48 O48        21.0519    6.9278   10.3603 O.2       1 UNK         0.0000 
     49 C49        19.2123    8.1650   11.2955 C.3       1 UNK         0.0000 
     50 H50        19.9641    8.9406   11.1178 H         1 UNK         0.0000 
     51 C51        18.9508    8.2727   12.8230 C.3       1 UNK         0.0000 
     52 H52        19.8346    7.9012   13.3292 H         1 UNK         0.0000 
     53 O53        18.7887    9.6324   13.1573 O.co2     1 UNK         0.0000 
     54 C54        17.7807    7.3436   13.3499 C.2       1 UNK         0.0000 
     55 O55        16.5917    7.6559   13.2466 O.2       1 UNK         0.0000 
     56 N56        18.0215    6.1394   13.9100 N.am      1 UNK         0.0000 
     57 C57        19.2273    5.3151   14.0826 C.3       1 UNK         0.0000 
     58 C58        19.2386    4.1246   13.0962 C.3       1 UNK         0.0000 
     59 N59        18.0029    8.4958   10.4916 N.3       1 UNK         0.0000 
     60 C60        18.1746    9.2599    9.2611 C.3       1 UNK         0.0000 
     61 C61        18.6291    8.3360    8.1378 C.2       1 UNK         0.0000 
     62 O62        17.9165    7.4044    7.7547 O.2       1 UNK         0.0000 
     63 C63        20.0481    8.5488    7.6036 C.3       1 UNK         0.0000 
     64 C64        20.1117    8.7303    6.0733 C.3       1 UNK         0.0000 
     65 C65        19.5828    7.5274    5.2579 C.3       1 UNK         0.0000 
     66 C66        20.2356    6.1760    5.6313 C.3       1 UNK         0.0000 
     67 C67        21.7676    6.1335    5.4421 C.3       1 UNK         0.0000 
     68 C68        22.2521    6.5201    4.0277 C.3       1 UNK         0.0000 
     69 C69        21.7081    5.6015    2.9186 C.3       1 UNK         0.0000 
     70 C70        22.2516    5.9573    1.5448 C.2       1 UNK         0.0000 
     71 C71        21.5643    6.3645    0.4607 C.2       1 UNK         0.0000 
     72 C72        20.0615    6.5795    0.3224 C.3       1 UNK         0.0000 
     73 C73        19.6513    8.0445    0.0571 C.3       1 UNK         0.0000 
     74 C74        20.2685    8.6915   -1.2043 C.3       1 UNK         0.0000 
     75 C75        19.9101    7.9705   -2.5193 C.3       1 UNK         0.0000 
     76 C76        20.5078    8.6567   -3.7602 C.3       1 UNK         0.0000 
     77 C77        20.1412    7.9318   -5.0648 C.3       1 UNK         0.0000 
     78 H78        19.6730   14.8366   14.3127 H         1 UNK         0.0000 
     79 H79        20.2952   14.7819   15.9672 H         1 UNK         0.0000 
     80 H80        18.5568   14.5528   15.6306 H         1 UNK         0.0000 
     81 H81        18.5432   12.5500   17.8756 H         1 UNK         0.0000 
     82 H82        20.1902   13.1220   17.7333 H         1 UNK         0.0000 
     83 H83        20.0129   11.3308   19.4740 H         1 UNK         0.0000 
     84 H84        19.2621   10.2419   18.3970 H         1 UNK         0.0000 
     85 H85        22.0460   10.7267   18.9434 H         1 UNK         0.0000 
     86 H86        21.8550   10.9980   17.2854 H         1 UNK         0.0000 
     87 H87        23.4475    9.2070   16.8950 H         1 UNK         0.0000 
     88 H88        25.6765   10.0267   17.9567 H         1 UNK         0.0000 
     89 H89        27.1598    9.1161   18.1128 H         1 UNK         0.0000 
     90 H90        25.9799   10.1972   20.0629 H         1 UNK         0.0000 
     91 H91        26.7430    7.7920   16.2827 H         1 UNK         0.0000 
     92 H92        24.3897    8.4129   12.7723 H         1 UNK         0.0000 
     93 H93        25.9664    8.1670   12.1348 H         1 UNK         0.0000 
     94 H94        25.9857   10.4278   12.5387 H         1 UNK         0.0000 
     95 H95        26.7474    9.8763   13.9766 H         1 UNK         0.0000 
     96 H96        25.1297   11.6887   14.3785 H         1 UNK         0.0000 
     97 H97        24.7430   10.2409   15.2489 H         1 UNK         0.0000 
     98 H98        24.1824   11.4550   11.2240 H         1 UNK         0.0000 
     99 H99        22.8668   10.5793   10.4661 H         1 UNK         0.0000 
    100 H100       24.2046    9.6812   11.0927 H         1 UNK         0.0000 
    101 H101       25.7580    5.2187   13.2658 H         1 UNK         0.0000 
    102 H102       23.9576    4.8985   10.3066 H         1 UNK         0.0000 
    103 H103       23.9714    3.1594   10.5735 H         1 UNK         0.0000 
    104 H104       26.0415    3.9956   10.2163 H         1 UNK         0.0000 
    105 H105       21.6955    4.5259   13.2220 H         1 UNK         0.0000 
    106 H106       18.1154    5.7596   11.1848 H         1 UNK         0.0000 
    107 H107       18.9907    5.2883    9.7877 H         1 UNK         0.0000 
    108 H108       17.1652    5.7732   14.2841 H         1 UNK         0.0000 
    109 H109       19.2297    4.9459   15.1104 H         1 UNK         0.0000 
    110 H110       20.1659    5.8650   14.0155 H         1 UNK         0.0000 
    111 H111       18.2223    3.7254   13.0465 H         1 UNK         0.0000 
    112 H112       19.7959    3.3055   13.5571 H         1 UNK         0.0000 
    113 H113       17.0884    8.3263   10.9070 H         1 UNK         0.0000 
    114 H114       18.8898   10.0764    9.3971 H         1 UNK         0.0000 
    115 H115       17.2276    9.7214    8.9872 H         1 UNK         0.0000 
    116 H116       20.6492    7.6966    7.9242 H         1 UNK         0.0000 
    117 H117       20.4949    9.4062    8.1061 H         1 UNK         0.0000 
    118 H118       21.1454    8.9344    5.7923 H         1 UNK         0.0000 
    119 H119       19.5530    9.6259    5.7975 H         1 UNK         0.0000 
    120 H120       19.7154    7.7303    4.1969 H         1 UNK         0.0000 
    121 H121       18.5014    7.4412    5.3734 H         1 UNK         0.0000 
    122 H122       19.7660    5.3830    5.0495 H         1 UNK         0.0000 
    123 H123       20.0000    5.9224    6.6671 H         1 UNK         0.0000 
    124 H124       22.1245    5.1323    5.6878 H         1 UNK         0.0000 
    125 H125       22.2400    6.7895    6.1749 H         1 UNK         0.0000 
    126 H126       23.3427    6.5045    4.0128 H         1 UNK         0.0000 
    127 H127       21.9803    7.5545    3.8094 H         1 UNK         0.0000 
    128 H128       20.6208    5.6283    2.9132 H         1 UNK         0.0000 
    129 H129       21.9958    4.5695    3.1228 H         1 UNK         0.0000 
    130 H130       23.3258    5.8615    1.4588 H         1 UNK         0.0000 
    131 H131       22.1270    6.5699   -0.4399 H         1 UNK         0.0000 
    132 H132       19.6849    5.9321   -0.4699 H         1 UNK         0.0000 
    133 H133       19.5417    6.2380    1.2151 H         1 UNK         0.0000 
    134 H134       18.5634    8.1019   -0.0106 H         1 UNK         0.0000 
    135 H135       19.9189    8.6455    0.9281 H         1 UNK         0.0000 
    136 H136       19.9335    9.7287   -1.2632 H         1 UNK         0.0000 
    137 H137       21.3533    8.7452   -1.0964 H         1 UNK         0.0000 
    138 H138       18.8241    7.9150   -2.6179 H         1 UNK         0.0000 
    139 H139       20.2632    6.9387   -2.4832 H         1 UNK         0.0000 
    140 H140       20.1655    9.6921   -3.8103 H         1 UNK         0.0000 
    141 H141       21.5945    8.7047   -3.6657 H         1 UNK         0.0000 
    142 H142       19.0606    7.8991   -5.2111 H         1 UNK         0.0000 
    143 H143       20.5056    6.9034   -5.0643 H         1 UNK         0.0000 
    144 H144       20.5750    8.4333   -5.9303 H         1 UNK         0.0000 
    145 Fe145      20.5097   10.3828   14.3429 Fe        1 UNK         0.0000 
@<TRIPOS>BOND
     1    1    2 1    
     2    1   78 1    
     3    1   79 1    
     4    1   80 1    
     5    2    3 2    
     6    2    4 am   BACKBONE|DICT|INTERRES
     7    3  145 nc   
     8    4    5 1    
     9    4    6 1    
    10    5  145 nc   
    11    6    7 1    
    12    6   81 1    
    13    6   82 1    
    14    7    8 1    
    15    7   83 1    
    16    7   84 1    
    17    8    9 1    
    18    8   85 1    
    19    8   86 1    
    20    9   10 1    
    21    9   11 1    
    22    9   14 1    
    23   11   12 1    
    24   11   13 2    
    25   12  145 nc   
    26   14   15 am   BACKBONE|DICT|INTERRES
    27   14   87 1    
    28   15   16 2    
    29   15   17 1    
    30   17   19 1    
    31   17   21 1    
    32   17   18 1    
    33   19   20 1    
    34   19   88 1    
    35   19   89 1    
    36   20   90 1    
    37   21   22 am   BACKBONE|DICT|INTERRES
    38   21   91 1    
    39   22   23 2    
    40   22   24 1    
    41   24   26 1    
    42   24   34 1    
    43   24   25 1    
    44   26   27 1    
    45   26   92 1    
    46   26   93 1    
    47   27   28 1    
    48   27   94 1    
    49   27   95 1    
    50   28   29 1    
    51   28   96 1    
    52   28   97 1    
    53   29   30 1    
    54   29   31 am   BACKBONE|DICT|INTERRES
    55   30  145 nc   
    56   31   32 2    
    57   31   33 1    
    58   32  145 nc   
    59   33   98 1    
    60   33   99 1    
    61   33  100 1    
    62   34   35 am   BACKBONE|DICT|INTERRES
    63   34  101 1    
    64   35   36 2    
    65   35   37 1    
    66   37   39 1    
    67   37   41 1    
    68   37   38 1    
    69   39   40 1    
    70   39  102 1    
    71   39  103 1    
    72   40  104 1    
    73   41   42 am   BACKBONE|DICT|INTERRES
    74   41  105 1    
    75   42   43 2    
    76   42   44 1    
    77   44   46 1    
    78   44   58 1    
    79   44   45 1    
    80   46   47 1    
    81   46  106 1    
    82   46  107 1    
    83   47   48 2    
    84   47   49 1    
    85   49   51 1    
    86   49   59 1    
    87   49   50 1    
    88   51   54 1    
    89   51   53 1    
    90   51   52 1    
    91   53  145 nc   
    92   54   55 2    
    93   54   56 am   BACKBONE|DICT|INTERRES
    94   56   57 1    
    95   56  108 1    
    96   57   58 1    
    97   57  109 1    
    98   57  110 1    
    99   58  111 1    
   100   58  112 1    
   101   59   60 1    
   102   59  113 1    
   103   60   61 1    
   104   60  114 1    
   105   60  115 1    
   106   61   62 2    
   107   61   63 1    
   108   63   64 1    
   109   63  116 1    
   110   63  117 1    
   111   64   65 1    
   112   64  118 1    
   113   64  119 1    
   114   65   66 1    
   115   65  120 1    
   116   65  121 1    
   117   66   67 1    
   118   66  122 1    
   119   66  123 1    
   120   67   68 1    
   121   67  124 1    
   122   67  125 1    
   123   68   69 1    
   124   68  126 1    
   125   68  127 1    
   126   69   70 1    
   127   69  128 1    
   128   69  129 1    
   129   70   71 2    
   130   70  130 1    
   131   71   72 1    
   132   71  131 1    
   133   72   73 1    
   134   72  132 1    
   135   72  133 1    
   136   73   74 1    
   137   73  134 1    
   138   73  135 1    
   139   74   75 1    
   140   74  136 1    
   141   74  137 1    
   142   75   76 1    
   143   75  138 1    
   144   75  139 1    
   145   76   77 1    
   146   76  140 1    
   147   76  141 1    
   148   77  142 1    
   149   77  143 1    
   150   77  144 1    
@<TRIPOS>SUBSTRUCTURE
     1 UNK         1 GROUP             0       ****    0 ROOT    
@<TRIPOS>MOLECULE
263_D2_c1
145   150    1
SMALL
USER_CHARGES


@<TRIPOS>ATOM
      1 C1         31.2517   -6.8892   14.1261 C.3       1 UNK         0.0000 
      2 C2         29.7694   -6.7723   13.8732 C.2       1 UNK         0.0000 
      3 O3         29.3850   -5.8579   13.1903 O.co2     1 UNK         0.0000 
      4 N4         28.8123   -7.6584   14.2833 N.am      1 UNK         0.0000 
      5 O5         27.5217   -7.1816   14.2408 O.co2     1 UNK         0.0000 
      6 C6         29.1960   -9.0134   14.7263 C.3       1 UNK         0.0000 
      7 C7         28.9095  -10.2418   13.7550 C.3       1 UNK         0.0000 
      8 C8         29.2412  -10.1689   12.1945 C.3       1 UNK         0.0000 
      9 C9         27.9374   -9.9789   11.3356 C.3       1 UNK         0.0000 
     10 H10        27.3075  -10.8908   11.4506 H         1 UNK         0.0000 
     11 C11        27.3177   -8.8156   11.9304 C.2       1 UNK         0.0000 
     12 O12        28.0364   -7.6890   11.8278 O.co2     1 UNK         0.0000 
     13 O13        26.2690   -8.8935   12.5443 O.co2     1 UNK         0.0000 
     14 N14        28.0836   -9.6209    9.9119 N.am      1 UNK         0.0000 
     15 C15        26.9524   -9.3836    9.1414 C.2       1 UNK         0.0000 
     16 O16        25.8574   -9.7040    9.5860 O.2       1 UNK         0.0000 
     17 C17        26.9316   -8.6689    7.7695 C.3       1 UNK         0.0000 
     18 H18        26.5501   -9.4000    7.0227 H         1 UNK         0.0000 
     19 C19        28.3011   -8.1789    7.2696 C.3       1 UNK         0.0000 
     20 O20        29.1584   -9.2643    7.0578 O.3       1 UNK         0.0000 
     21 N21        25.9738   -7.5397    7.8033 N.am      1 UNK         0.0000 
     22 C22        26.0974   -6.4852    8.6646 C.2       1 UNK         0.0000 
     23 O23        27.0218   -6.5029    9.4316 O.2       1 UNK         0.0000 
     24 C24        24.9774   -5.4530    8.8827 C.3       1 UNK         0.0000 
     25 H25        24.3785   -5.4221    7.9475 H         1 UNK         0.0000 
     26 C26        25.4098   -3.9708    9.2904 C.3       1 UNK         0.0000 
     27 C27        26.6101   -3.0552    9.0092 C.3       1 UNK         0.0000 
     28 C28        27.9040   -3.3779    9.7910 C.3       1 UNK         0.0000 
     29 N29        27.7271   -4.0416   11.0942 N.am      1 UNK         0.0000 
     30 O30        28.1272   -5.2938   11.0700 O.co2     1 UNK         0.0000 
     31 C31        27.2693   -3.5656   12.2992 C.2       1 UNK         0.0000 
     32 O32        27.1888   -4.3682   13.2479 O.co2     1 UNK         0.0000 
     33 C33        26.8892   -2.1320   12.4837 C.3       1 UNK         0.0000 
     34 N34        24.1571   -5.9988    9.9860 N.am      1 UNK         0.0000 
     35 C35        23.5280   -5.2162   10.9238 C.2       1 UNK         0.0000 
     36 O36        23.1142   -4.1023   10.6384 O.2       1 UNK         0.0000 
     37 C37        23.4728   -5.6092   12.3945 C.3       1 UNK         0.0000 
     38 H38        23.8656   -4.6940   12.8964 H         1 UNK         0.0000 
     39 C39        24.5728   -6.6307   12.8261 C.3       1 UNK         0.0000 
     40 O40        25.7540   -6.3724   12.0564 O.co2     1 UNK         0.0000 
     41 N41        22.0807   -5.7665   12.8564 N.am      1 UNK         0.0000 
     42 C42        21.0662   -5.9853   11.9474 C.2       1 UNK         0.0000 
     43 O43        21.2736   -6.6497   10.9400 O.2       1 UNK         0.0000 
     44 C44        19.7620   -5.1851   12.0075 C.3       1 UNK         0.0000 
     45 H45        19.2184   -5.3844   11.0571 H         1 UNK         0.0000 
     46 C46        20.1811   -3.6821   12.0344 C.3       1 UNK         0.0000 
     47 C47        19.0994   -2.6456   11.8947 C.2       1 UNK         0.0000 
     48 O48        18.9336   -1.8683   12.8252 O.2       1 UNK         0.0000 
     49 C49        18.2360   -2.4641   10.6644 C.3       1 UNK         0.0000 
     50 H50        18.3333   -1.3853   10.3963 H         1 UNK         0.0000 
     51 C51        16.7281   -2.7230   11.0023 C.3       1 UNK         0.0000 
     52 H52        16.4804   -2.2760   11.9889 H         1 UNK         0.0000 
     53 O53        15.9145   -2.0105   10.0939 O.3       1 UNK         0.0000 
     54 C54        16.3381   -4.2068   10.9922 C.2       1 UNK         0.0000 
     55 O55        15.6243   -4.5874   10.0742 O.2       1 UNK         0.0000 
     56 N56        16.7328   -5.1387   11.9152 N.am      1 UNK         0.0000 
     57 C57        17.4622   -4.8928   13.1485 C.3       1 UNK         0.0000 
     58 C58        18.8293   -5.6148   13.1573 C.3       1 UNK         0.0000 
     59 N59        18.7005   -3.3005    9.5313 N.3       1 UNK         0.0000 
     60 C60        19.7875   -2.6788    8.7527 C.3       1 UNK         0.0000 
     61 C61        20.4415   -3.6969    7.8464 C.2       1 UNK         0.0000 
     62 O62        20.0635   -4.8601    7.8561 O.2       1 UNK         0.0000 
     63 C63        21.5838   -3.3053    6.9438 C.3       1 UNK         0.0000 
     64 C64        21.2593   -3.5959    5.4699 C.3       1 UNK         0.0000 
     65 C65        22.4432   -3.2224    4.5616 C.3       1 UNK         0.0000 
     66 C66        22.1724   -3.4636    3.0650 C.3       1 UNK         0.0000 
     67 C67        21.9971   -4.9469    2.7041 C.3       1 UNK         0.0000 
     68 C68        21.7576   -5.0886    1.2179 C.2       1 UNK         0.0000 
     69 C69        22.5183   -5.7575    0.3261 C.2       1 UNK         0.0000 
     70 C70        23.7917   -6.5287    0.6074 C.3       1 UNK         0.0000 
     71 C71        25.0098   -5.9331   -0.1192 C.3       1 UNK         0.0000 
     72 C72        24.8932   -5.9772   -1.6549 C.3       1 UNK         0.0000 
     73 C73        26.0989   -5.3490   -2.3754 C.3       1 UNK         0.0000 
     74 C74        27.4194   -6.1009   -2.1452 C.3       1 UNK         0.0000 
     75 C75        28.5600   -5.4461   -2.9413 C.3       1 UNK         0.0000 
     76 C76        29.9253   -6.1152   -2.7147 C.3       1 UNK         0.0000 
     77 C77        29.9860   -7.5577   -3.2172 C.3       1 UNK         0.0000 
     78 H78        31.7879   -6.0234   13.6775 H         1 UNK         0.0000 
     79 H79        31.6637   -7.8063   13.6593 H         1 UNK         0.0000 
     80 H80        31.4486   -6.8868   15.2184 H         1 UNK         0.0000 
     81 H81        28.7997   -9.2120   15.7436 H         1 UNK         0.0000 
     82 H82        30.2944   -9.0576   14.8525 H         1 UNK         0.0000 
     83 H83        27.8726  -10.6122   13.8894 H         1 UNK         0.0000 
     84 H84        29.5433  -11.0571   14.1713 H         1 UNK         0.0000 
     85 H85        29.6706  -11.1370   11.8569 H         1 UNK         0.0000 
     86 H86        30.0178   -9.3911   12.0202 H         1 UNK         0.0000 
     87 H87        29.0247   -9.4093    9.5538 H         1 UNK         0.0000 
     88 H88        28.7568   -7.4726    7.9971 H         1 UNK         0.0000 
     89 H89        28.1401   -7.6493    6.3030 H         1 UNK         0.0000 
     90 H90        29.9894   -8.8806    6.6738 H         1 UNK         0.0000 
     91 H91        25.1432   -7.5858    7.1935 H         1 UNK         0.0000 
     92 H92        25.4533   -3.9400   10.3892 H         1 UNK         0.0000 
     93 H93        24.5387   -3.3555    8.9734 H         1 UNK         0.0000 
     94 H94        26.3016   -2.0640    9.4111 H         1 UNK         0.0000 
     95 H95        26.7930   -2.9056    7.9238 H         1 UNK         0.0000 
     96 H96        28.5786   -2.4994    9.8637 H         1 UNK         0.0000 
     97 H97        28.4249   -4.1022    9.1234 H         1 UNK         0.0000 
     98 H98        27.7645   -1.4872   12.2618 H         1 UNK         0.0000 
     99 H99        26.5609   -1.9476   13.5284 H         1 UNK         0.0000 
    100 H100       26.0565   -1.8719   11.8001 H         1 UNK         0.0000 
    101 H101       24.3872   -6.9569   10.2873 H         1 UNK         0.0000 
    102 H102       24.7687   -6.6060   13.9196 H         1 UNK         0.0000 
    103 H103       24.2037   -7.6417   12.5576 H         1 UNK         0.0000 
    104 H104       21.8433   -5.2020   13.6850 H         1 UNK         0.0000 
    105 H105       20.8917   -3.4958   11.2157 H         1 UNK         0.0000 
    106 H106       20.7161   -3.4788   12.9850 H         1 UNK         0.0000 
    107 H107       16.2032   -2.2013    9.1656 H         1 UNK         0.0000 
    108 H108       16.4467   -6.1165   11.7499 H         1 UNK         0.0000 
    109 H109       16.8518   -5.2826   13.9903 H         1 UNK         0.0000 
    110 H110       17.5658   -3.8231   13.3628 H         1 UNK         0.0000 
    111 H111       18.6352   -6.7057   13.0545 H         1 UNK         0.0000 
    112 H112       19.3282   -5.4435   14.1341 H         1 UNK         0.0000 
    113 H113       17.9287   -3.4949    8.8533 H         1 UNK         0.0000 
    114 H114       20.5692   -2.2604    9.4192 H         1 UNK         0.0000 
    115 H115       19.3811   -1.8443    8.1387 H         1 UNK         0.0000 
    116 H116       22.4803   -3.8892    7.2436 H         1 UNK         0.0000 
    117 H117       21.8123   -2.2243    7.0685 H         1 UNK         0.0000 
    118 H118       20.3636   -3.0098    5.1672 H         1 UNK         0.0000 
    119 H119       21.0342   -4.6775    5.3642 H         1 UNK         0.0000 
    120 H120       23.3490   -3.7923    4.8648 H         1 UNK         0.0000 
    121 H121       22.6560   -2.1392    4.6959 H         1 UNK         0.0000 
    122 H122       21.2761   -2.8835    2.7530 H         1 UNK         0.0000 
    123 H123       23.0488   -3.0766    2.4988 H         1 UNK         0.0000 
    124 H124       21.1129   -5.3702    3.2220 H         1 UNK         0.0000 
    125 H125       22.8867   -5.4957    3.0575 H         1 UNK         0.0000 
    126 H126       20.8729   -4.5902    0.8301 H         1 UNK         0.0000 
    127 H127       22.1755   -5.7424   -0.7035 H         1 UNK         0.0000 
    128 H128       23.6471   -7.5841    0.2917 H         1 UNK         0.0000 
    129 H129       24.0402   -6.5491    1.6819 H         1 UNK         0.0000 
    130 H130       25.8945   -6.5257    0.1930 H         1 UNK         0.0000 
    131 H131       25.1541   -4.8830    0.2177 H         1 UNK         0.0000 
    132 H132       24.0015   -5.3973   -1.9697 H         1 UNK         0.0000 
    133 H133       24.7635   -7.0284   -1.9937 H         1 UNK         0.0000 
    134 H134       26.2062   -4.2894   -2.0547 H         1 UNK         0.0000 
    135 H135       25.8791   -5.3590   -3.4659 H         1 UNK         0.0000 
    136 H136       27.6879   -6.0806   -1.0688 H         1 UNK         0.0000 
    137 H137       27.2855   -7.1544   -2.4682 H         1 UNK         0.0000 
    138 H138       28.6487   -4.3856   -2.6178 H         1 UNK         0.0000 
    139 H139       28.3204   -5.4575   -4.0274 H         1 UNK         0.0000 
    140 H140       30.1843   -6.0866   -1.6340 H         1 UNK         0.0000 
    141 H141       30.6908   -5.5294   -3.2686 H         1 UNK         0.0000 
    142 H142       29.2824   -8.2085   -2.6599 H         1 UNK         0.0000 
    143 H143       31.0111   -7.9566   -3.0653 H         1 UNK         0.0000 
    144 H144       29.7474   -7.5977   -4.3013 H         1 UNK         0.0000 
    145 Fe145      27.6177   -6.1054   12.6404 Fe        1 UNK         0.0000 
@<TRIPOS>BOND
     1    1    2 1    
     2    1   78 1    
     3    1   79 1    
     4    1   80 1    
     5    2    3 2    
     6    2    4 am   BACKBONE|DICT|INTERRES
     7    3  145 nc   
     8    4    5 1    
     9    4    6 1    
    10    5  145 nc   
    11    6    7 1    
    12    6   81 1    
    13    6   82 1    
    14    7    8 1    
    15    7   83 1    
    16    7   84 1    
    17    8    9 1    
    18    8   85 1    
    19    8   86 1    
    20    9   10 1    
    21    9   11 1    
    22    9   14 1    
    23   11   12 1    
    24   11   13 2    
    25   12  145 nc   
    26   14   15 am   BACKBONE|DICT|INTERRES
    27   14   87 1    
    28   15   16 2    
    29   15   17 1    
    30   17   19 1    
    31   17   21 1    
    32   17   18 1    
    33   19   20 1    
    34   19   88 1    
    35   19   89 1    
    36   20   90 1    
    37   21   22 am   BACKBONE|DICT|INTERRES
    38   21   91 1    
    39   22   23 2    
    40   22   24 1    
    41   24   26 1    
    42   24   34 1    
    43   24   25 1    
    44   26   27 1    
    45   26   92 1    
    46   26   93 1    
    47   27   28 1    
    48   27   94 1    
    49   27   95 1    
    50   28   29 1    
    51   28   96 1    
    52   28   97 1    
    53   29   30 1    
    54   29   31 am   BACKBONE|DICT|INTERRES
    55   30  145 nc   
    56   31   32 2    
    57   31   33 1    
    58   32  145 nc   
    59   33   98 1    
    60   33   99 1    
    61   33  100 1    
    62   34   35 am   BACKBONE|DICT|INTERRES
    63   34  101 1    
    64   35   36 2    
    65   35   37 1    
    66   37   39 1    
    67   37   41 1    
    68   37   38 1    
    69   39   40 1    
    70   39  102 1    
    71   39  103 1    
    72   40  145 nc   
    73   41   42 am   BACKBONE|DICT|INTERRES
    74   41  104 1    
    75   42   43 2    
    76   42   44 1    
    77   44   46 1    
    78   44   58 1    
    79   44   45 1    
    80   46   47 1    
    81   46  105 1    
    82   46  106 1    
    83   47   48 2    
    84   47   49 1    
    85   49   51 1    
    86   49   59 1    
    87   49   50 1    
    88   51   54 1    
    89   51   53 1    
    90   51   52 1    
    91   53  107 1    
    92   54   55 2    
    93   54   56 am   BACKBONE|DICT|INTERRES
    94   56   57 1    
    95   56  108 1    
    96   57   58 1    
    97   57  109 1    
    98   57  110 1    
    99   58  111 1    
   100   58  112 1    
   101   59   60 1    
   102   59  113 1    
   103   60   61 1    
   104   60  114 1    
   105   60  115 1    
   106   61   62 2    
   107   61   63 1    
   108   63   64 1    
   109   63  116 1    
   110   63  117 1    
   111   64   65 1    
   112   64  118 1    
   113   64  119 1    
   114   65   66 1    
   115   65  120 1    
   116   65  121 1    
   117   66   67 1    
   118   66  122 1    
   119   66  123 1    
   120   67   68 1    
   121   67  124 1    
   122   67  125 1    
   123   68   69 2    
   124   68  126 1    
   125   69   70 1    
   126   69  127 1    
   127   70   71 1    
   128   70  128 1    
   129   70  129 1    
   130   71   72 1    
   131   71  130 1    
   132   71  131 1    
   133   72   73 1    
   134   72  132 1    
   135   72  133 1    
   136   73   74 1    
   137   73  134 1    
   138   73  135 1    
   139   74   75 1    
   140   74  136 1    
   141   74  137 1    
   142   75   76 1    
   143   75  138 1    
   144   75  139 1    
   145   76   77 1    
   146   76  140 1    
   147   76  141 1    
   148   77  142 1    
   149   77  143 1    
   150   77  144 1    
@<TRIPOS>SUBSTRUCTURE
     1 UNK         1 GROUP             0       ****    0 ROOT    
@<TRIPOS>MOLECULE
263_E_c1
147   152    1
SMALL
USER_CHARGES


@<TRIPOS>ATOM
      1 C1         16.9371  -23.1431  -11.2148 C.3       1 UNK         0.0000 
      2 C2         18.0409  -22.7597  -10.2451 C.2       1 UNK         0.0000 
      3 O3         18.5567  -21.6210  -10.2624 O.co2     1 UNK         0.0000 
      4 N4         18.4905  -23.6124   -9.2863 N.am      1 UNK         0.0000 
      5 O5         19.5613  -23.3032   -8.6000 O.co2     1 UNK         0.0000 
      6 C6         17.8067  -24.7979   -8.7261 C.3       1 UNK         0.0000 
      7 C7         17.9816  -25.0514   -7.1716 C.3       1 UNK         0.0000 
      8 C8         17.2985  -24.0381   -6.2014 C.3       1 UNK         0.0000 
      9 C9         18.1079  -23.0684   -5.2276 C.3       1 UNK         0.0000 
     10 H10        18.2200  -23.5831   -4.2633 H         1 UNK         0.0000 
     11 C11        19.6043  -22.7090   -5.6518 C.2       1 UNK         0.0000 
     12 O12        19.7877  -21.6884   -6.4047 O.co2     1 UNK         0.0000 
     13 O13        20.4502  -23.4810   -5.1558 O.co2     1 UNK         0.0000 
     14 N14        17.2348  -21.8842   -5.0193 N.am      1 UNK         0.0000 
     15 C15        17.5375  -20.5803   -4.8488 C.2       1 UNK         0.0000 
     16 O16        18.2802  -20.1531   -3.9617 O.2       1 UNK         0.0000 
     17 C17        16.8704  -19.5785   -5.8484 C.3       1 UNK         0.0000 
     18 H18        15.9621  -19.2411   -5.3451 H         1 UNK         0.0000 
     19 C19        16.4432  -20.1909   -7.2697 C.3       1 UNK         0.0000 
     20 O20        17.1702  -21.2951   -7.8048 O.co2     1 UNK         0.0000 
     21 N21        17.7375  -18.3881   -5.9588 N.am      1 UNK         0.0000 
     22 C22        17.3574  -17.1444   -6.3078 C.2       1 UNK         0.0000 
     23 O23        16.1806  -16.8222   -6.4702 O.2       1 UNK         0.0000 
     24 C24        18.4222  -16.0346   -6.5039 C.3       1 UNK         0.0000 
     25 H25        17.9311  -15.2781   -7.1152 H         1 UNK         0.0000 
     26 C26        19.7061  -16.4422   -7.2842 C.3       1 UNK         0.0000 
     27 C27        19.5182  -16.6312   -8.8107 C.3       1 UNK         0.0000 
     28 C28        20.5486  -17.6089   -9.4582 C.3       1 UNK         0.0000 
     29 N29        20.4484  -19.0330   -9.0533 N.am      1 UNK         0.0000 
     30 O30        19.3026  -19.3495   -8.4718 O.co2     1 UNK         0.0000 
     31 C31        21.3893  -19.9665   -9.3061 C.2       1 UNK         0.0000 
     32 O32        21.1281  -21.1387   -8.9928 O.co2     1 UNK         0.0000 
     33 C33        22.6946  -19.6230  -10.0149 C.3       1 UNK         0.0000 
     34 N34        18.7032  -15.3312   -5.2491 N.am      1 UNK         0.0000 
     35 C35        19.4651  -15.7842   -4.2470 C.2       1 UNK         0.0000 
     36 O36        20.0523  -16.8583   -4.2625 O.2       1 UNK         0.0000 
     37 C37        19.7306  -14.8193   -3.0810 C.3       1 UNK         0.0000 
     38 H38        20.4327  -15.3397   -2.4276 H         1 UNK         0.0000 
     39 C39        18.4647  -14.5286   -2.2372 C.3       1 UNK         0.0000 
     40 O40        18.8099  -13.9559   -0.9839 O.3       1 UNK         0.0000 
     41 N41        20.4592  -13.6448   -3.5948 N.am      1 UNK         0.0000 
     42 C42        20.0910  -12.3592   -3.7296 C.2       1 UNK         0.0000 
     43 O43        19.0098  -11.9091   -3.3608 O.2       1 UNK         0.0000 
     44 C44        21.0628  -11.4273   -4.4975 C.3       1 UNK         0.0000 
     45 H45        20.7073  -10.4205   -4.2765 H         1 UNK         0.0000 
     46 C46        20.8465  -11.7278   -6.0089 C.3       1 UNK         0.0000 
     47 C47        21.5497  -10.8050   -7.0055 C.2       1 UNK         0.0000 
     48 O48        22.4138  -11.2990   -7.7278 O.2       1 UNK         0.0000 
     49 C49        21.2469   -9.3022   -7.0652 C.3       1 UNK         0.0000 
     50 H50        21.0139   -9.1286   -8.1184 H         1 UNK         0.0000 
     51 C51        22.5554   -8.4887   -6.7587 C.3       1 UNK         0.0000 
     52 H52        23.4542   -8.9715   -7.1413 H         1 UNK         0.0000 
     53 O53        22.4202   -7.2618   -7.4864 O.3       1 UNK         0.0000 
     54 C54        22.7574   -8.1720   -5.2341 C.2       1 UNK         0.0000 
     55 O55        22.5390   -7.0358   -4.8199 O.2       1 UNK         0.0000 
     56 N56        23.1575   -9.0901   -4.3393 N.am      1 UNK         0.0000 
     57 C57        23.5714  -10.4820   -4.5260 C.3       1 UNK         0.0000 
     58 C58        22.5423  -11.5134   -3.9859 C.3       1 UNK         0.0000 
     59 N59        20.0792   -8.7966   -6.2746 N.3       1 UNK         0.0000 
     60 C60        18.7250   -9.2855   -6.5482 C.3       1 UNK         0.0000 
     61 C61        17.6303   -8.2593   -6.1840 C.2       1 UNK         0.0000 
     62 O62        16.8405   -7.8920   -7.0523 O.2       1 UNK         0.0000 
     63 C63        17.5088   -7.6677   -4.7643 C.3       1 UNK         0.0000 
     64 C64        18.3596   -8.2913   -3.6245 C.3       1 UNK         0.0000 
     65 C65        18.4271   -7.4465   -2.3340 C.3       1 UNK         0.0000 
     66 C66        17.1375   -7.3426   -1.4928 C.3       1 UNK         0.0000 
     67 C67        16.0810   -6.3535   -2.0366 C.3       1 UNK         0.0000 
     68 C68        14.9717   -5.9899   -1.0292 C.3       1 UNK         0.0000 
     69 C69        15.4589   -5.1194    0.1512 C.3       1 UNK         0.0000 
     70 C70        14.3398   -4.6934    1.1180 C.3       1 UNK         0.0000 
     71 C71        13.2711   -3.7791    0.4792 C.3       1 UNK         0.0000 
     72 C72        12.3139   -3.1335    1.4986 C.3       1 UNK         0.0000 
     73 C73        11.4715   -4.1476    2.2972 C.3       1 UNK         0.0000 
     74 C74        10.4914   -3.4640    3.2713 C.3       1 UNK         0.0000 
     75 C75         9.6109   -4.4447    4.0723 C.3       1 UNK         0.0000 
     76 C76        10.3946   -5.3381    5.0550 C.3       1 UNK         0.0000 
     77 C77         9.4743   -6.2262    5.9044 C.3       1 UNK         0.0000 
     78 H78        16.7335  -22.3069  -11.8801 H         1 UNK         0.0000 
     79 H79        16.0179  -23.4033  -10.6976 H         1 UNK         0.0000 
     80 H80        17.2858  -23.9856  -11.8027 H         1 UNK         0.0000 
     81 H81        18.2004  -25.6650   -9.2598 H         1 UNK         0.0000 
     82 H82        16.7386  -24.7565   -8.9606 H         1 UNK         0.0000 
     83 H83        19.0346  -25.1814   -6.9163 H         1 UNK         0.0000 
     84 H84        17.5529  -26.0264   -6.9669 H         1 UNK         0.0000 
     85 H85        16.6337  -24.6071   -5.5547 H         1 UNK         0.0000 
     86 H86        16.5792  -23.4830   -6.7999 H         1 UNK         0.0000 
     87 H87        16.5170  -21.9064   -5.7399 H         1 UNK         0.0000 
     88 H88        16.3915  -19.3602   -7.9753 H         1 UNK         0.0000 
     89 H89        15.3809  -20.4244   -7.1833 H         1 UNK         0.0000 
     90 H90        18.6848  -18.5663   -5.6572 H         1 UNK         0.0000 
     91 H91        20.1083  -17.3554   -6.8438 H         1 UNK         0.0000 
     92 H92        20.4722  -15.6843   -7.1288 H         1 UNK         0.0000 
     93 H93        19.5786  -15.6624   -9.3005 H         1 UNK         0.0000 
     94 H94        18.5079  -16.9865   -9.0284 H         1 UNK         0.0000 
     95 H95        20.4312  -17.5606  -10.5425 H         1 UNK         0.0000 
     96 H96        21.5568  -17.2360   -9.2501 H         1 UNK         0.0000 
     97 H97        22.4937  -19.1506  -10.9713 H         1 UNK         0.0000 
     98 H98        23.2749  -20.5236  -10.2005 H         1 UNK         0.0000 
     99 H99        23.2920  -18.9558   -9.4042 H         1 UNK         0.0000 
    100 H100       18.2499  -14.4384   -5.1448 H         1 UNK         0.0000 
    101 H101       17.9482  -15.4690   -2.0402 H         1 UNK         0.0000 
    102 H102       17.7421  -13.9096   -2.7714 H         1 UNK         0.0000 
    103 H103       18.0579  -13.4416   -0.6768 H         1 UNK         0.0000 
    104 H104       21.3427  -13.9101   -3.9960 H         1 UNK         0.0000 
    105 H105       19.7896  -11.7337   -6.2710 H         1 UNK         0.0000 
    106 H106       21.1999  -12.7387   -6.2220 H         1 UNK         0.0000 
    107 H107       22.3613   -6.5508   -6.8303 H         1 UNK         0.0000 
    108 H108       23.2363   -8.7046   -3.4090 H         1 UNK         0.0000 
    109 H109       24.5159  -10.6093   -3.9930 H         1 UNK         0.0000 
    110 H110       23.8153  -10.6794   -5.5715 H         1 UNK         0.0000 
    111 H111       22.5328  -11.4060   -2.8988 H         1 UNK         0.0000 
    112 H112       22.9372  -12.5117   -4.1753 H         1 UNK         0.0000 
    113 H113       20.0829   -7.7829   -6.3703 H         1 UNK         0.0000 
    114 H114       18.5272  -10.1876   -5.9719 H         1 UNK         0.0000 
    115 H115       18.6194   -9.5396   -7.6052 H         1 UNK         0.0000 
    116 H116       17.7479   -6.6066   -4.8480 H         1 UNK         0.0000 
    117 H117       16.4533   -7.7283   -4.5093 H         1 UNK         0.0000 
    118 H118       19.3949   -8.4058   -3.9363 H         1 UNK         0.0000 
    119 H119       18.0091   -9.3000   -3.3971 H         1 UNK         0.0000 
    120 H120       18.8022   -6.4472   -2.5640 H         1 UNK         0.0000 
    121 H121       19.1955   -7.8877   -1.6985 H         1 UNK         0.0000 
    122 H122       17.4404   -7.0219   -0.4966 H         1 UNK         0.0000 
    123 H123       16.6948   -8.3307   -1.3552 H         1 UNK         0.0000 
    124 H124       15.5948   -6.7804   -2.9112 H         1 UNK         0.0000 
    125 H125       16.5660   -5.4377   -2.3827 H         1 UNK         0.0000 
    126 H126       14.4991   -6.9003   -0.6536 H         1 UNK         0.0000 
    127 H127       14.1916   -5.4552   -1.5733 H         1 UNK         0.0000 
    128 H128       16.2077   -5.6654    0.7256 H         1 UNK         0.0000 
    129 H129       15.9680   -4.2313   -0.2309 H         1 UNK         0.0000 
    130 H130       14.7948   -4.1756    1.9644 H         1 UNK         0.0000 
    131 H131       13.8692   -5.5861    1.5337 H         1 UNK         0.0000 
    132 H132       13.7665   -2.9849   -0.0816 H         1 UNK         0.0000 
    133 H133       12.6870   -4.3399   -0.2517 H         1 UNK         0.0000 
    134 H134       11.6459   -2.4526    0.9678 H         1 UNK         0.0000 
    135 H135       12.8870   -2.5095    2.1878 H         1 UNK         0.0000 
    136 H136       10.9167   -4.7886    1.6089 H         1 UNK         0.0000 
    137 H137       12.1355   -4.8055    2.8568 H         1 UNK         0.0000 
    138 H138        9.8409   -2.7921    2.7067 H         1 UNK         0.0000 
    139 H139       11.0458   -2.8255    3.9632 H         1 UNK         0.0000 
    140 H140        9.0387   -5.0675    3.3810 H         1 UNK         0.0000 
    141 H141        8.8720   -3.8654    4.6296 H         1 UNK         0.0000 
    142 H142       11.0919   -5.9745    4.5097 H         1 UNK         0.0000 
    143 H143       11.0039   -4.7151    5.7118 H         1 UNK         0.0000 
    144 H144       10.0511   -6.8457    6.5903 H         1 UNK         0.0000 
    145 H145        8.8790   -6.8937    5.2803 H         1 UNK         0.0000 
    146 H146        8.7854   -5.6279    6.5020 H         1 UNK         0.0000 
    147 Fe147      19.2304  -21.3731   -8.3642 Fe        1 UNK         0.0000 
@<TRIPOS>BOND
     1    1    2 1    
     2    1   78 1    
     3    1   79 1    
     4    1   80 1    
     5    2    3 2    
     6    2    4 am   BACKBONE|DICT|INTERRES
     7    3  147 nc   
     8    4    5 1    
     9    4    6 1    
    10    5  147 nc   
    11    6    7 1    
    12    6   81 1    
    13    6   82 1    
    14    7    8 1    
    15    7   83 1    
    16    7   84 1    
    17    8    9 1    
    18    8   85 1    
    19    8   86 1    
    20    9   10 1    
    21    9   11 1    
    22    9   14 1    
    23   11   12 1    
    24   11   13 2    
    25   12  147 nc   
    26   14   15 am   BACKBONE|DICT|INTERRES
    27   14   87 1    
    28   15   16 2    
    29   15   17 1    
    30   17   19 1    
    31   17   21 1    
    32   17   18 1    
    33   19   20 1    
    34   19   88 1    
    35   19   89 1    
    36   20  147 nc   
    37   21   22 am   BACKBONE|DICT|INTERRES
    38   21   90 1    
    39   22   23 2    
    40   22   24 1    
    41   24   26 1    
    42   24   34 1    
    43   24   25 1    
    44   26   27 1    
    45   26   91 1    
    46   26   92 1    
    47   27   28 1    
    48   27   93 1    
    49   27   94 1    
    50   28   29 1    
    51   28   95 1    
    52   28   96 1    
    53   29   30 1    
    54   29   31 am   BACKBONE|DICT|INTERRES
    55   30  147 nc   
    56   31   32 2    
    57   31   33 1    
    58   32  147 nc   
    59   33   97 1    
    60   33   98 1    
    61   33   99 1    
    62   34   35 am   BACKBONE|DICT|INTERRES
    63   34  100 1    
    64   35   36 2    
    65   35   37 1    
    66   37   39 1    
    67   37   41 1    
    68   37   38 1    
    69   39   40 1    
    70   39  101 1    
    71   39  102 1    
    72   40  103 1    
    73   41   42 am   BACKBONE|DICT|INTERRES
    74   41  104 1    
    75   42   43 2    
    76   42   44 1    
    77   44   46 1    
    78   44   58 1    
    79   44   45 1    
    80   46   47 1    
    81   46  105 1    
    82   46  106 1    
    83   47   48 2    
    84   47   49 1    
    85   49   51 1    
    86   49   59 1    
    87   49   50 1    
    88   51   54 1    
    89   51   53 1    
    90   51   52 1    
    91   53  107 1    
    92   54   55 2    
    93   54   56 am   BACKBONE|DICT|INTERRES
    94   56   57 1    
    95   56  108 1    
    96   57   58 1    
    97   57  109 1    
    98   57  110 1    
    99   58  111 1    
   100   58  112 1    
   101   59   60 1    
   102   59  113 1    
   103   60   61 1    
   104   60  114 1    
   105   60  115 1    
   106   61   62 2    
   107   61   63 1    
   108   63   64 1    
   109   63  116 1    
   110   63  117 1    
   111   64   65 1    
   112   64  118 1    
   113   64  119 1    
   114   65   66 1    
   115   65  120 1    
   116   65  121 1    
   117   66   67 1    
   118   66  122 1    
   119   66  123 1    
   120   67   68 1    
   121   67  124 1    
   122   67  125 1    
   123   68   69 1    
   124   68  126 1    
   125   68  127 1    
   126   69   70 1    
   127   69  128 1    
   128   69  129 1    
   129   70   71 1    
   130   70  130 1    
   131   70  131 1    
   132   71   72 1    
   133   71  132 1    
   134   71  133 1    
   135   72   73 1    
   136   72  134 1    
   137   72  135 1    
   138   73   74 1    
   139   73  136 1    
   140   73  137 1    
   141   74   75 1    
   142   74  138 1    
   143   74  139 1    
   144   75   76 1    
   145   75  140 1    
   146   75  141 1    
   147   76   77 1    
   148   76  142 1    
   149   76  143 1    
   150   77  144 1    
   151   77  145 1    
   152   77  146 1    
@<TRIPOS>SUBSTRUCTURE
     1 UNK         1 GROUP             0       ****    0 ROOT    
@<TRIPOS>MOLECULE
265_c1
231   244    1
SMALL
USER_CHARGES


@<TRIPOS>ATOM
      1 C1         -8.2317    4.9534   -1.3737 C.ar      1 UNK         0.0000 
      2 C2         -7.8638    3.6687   -0.9849 C.ar      1 UNK         0.0000 
      3 C3         -7.1702    2.8491   -1.8740 C.ar      1 UNK         0.0000 
      4 C4         -6.8426    3.3008   -3.1511 C.ar      1 UNK         0.0000 
      5 C5         -7.2066    4.5846   -3.5431 C.ar      1 UNK         0.0000 
      6 C6         -7.8937    5.4137   -2.6509 C.ar      1 UNK         0.0000 
      7 C7         -8.2548    6.8235   -3.0769 C.3       1 UNK         0.0000 
      8 O8         -9.0718    6.7384   -4.2480 O.3       1 UNK         0.0000 
      9 C9         -9.6937    7.9156   -4.7394 C.3       1 UNK         0.0000 
     10 H10       -10.0537    7.6376   -5.7294 H         1 UNK         0.0000 
     11 C11        -8.7062    9.0815   -4.9421 C.3       1 UNK         0.0000 
     12 C12       -10.9288    8.2909   -3.8749 C.3       1 UNK         0.0000 
     13 H13       -10.5811    8.5461   -2.8703 H         1 UNK         0.0000 
     14 N14       -11.6269    9.4538   -4.4604 N.am      1 UNK         0.0000 
     15 C15       -12.2289   10.3952   -3.7317 C.2       1 UNK         0.0000 
     16 O16       -12.3115   10.3480   -2.5140 O.2       1 UNK         0.0000 
     17 C17       -11.9240    7.1153   -3.6939 C.2       1 UNK         0.0000 
     18 O18       -13.1058    7.2915   -4.1133 O.2       1 UNK         0.0000 
     19 N19       -11.4896    5.9658   -3.1192 N.am      1 UNK         0.0000 
     20 C20       -12.1707    4.6514   -3.0653 C.3       1 UNK         0.0000 
     21 C21       -12.2962    3.9646   -1.6659 C.3       1 UNK         0.0000 
     22 C22       -13.6937    3.9627   -0.9481 C.3       1 UNK         0.0000 
     23 C23       -13.9092    4.9139    0.2752 C.3       1 UNK         0.0000 
     24 C24       -13.6555    6.4212    0.0699 C.3       1 UNK         0.0000 
     25 C25       -14.0936    6.9509   -1.2957 C.3       1 UNK         0.0000 
     26 C26       -15.5419    6.9883   -1.7558 C.2       1 UNK         0.0000 
     27 O27       -15.7439    7.0998   -2.9976 O.2       1 UNK         0.0000 
     28 N28       -16.5061    7.0618   -0.8240 N.am      1 UNK         0.0000 
     29 C29       -17.7203    7.8757   -0.9720 C.3       1 UNK         0.0000 
     30 H30       -18.3256    7.4946   -1.7896 H         1 UNK         0.0000 
     31 C31       -18.5546    7.8170    0.3326 C.3       1 UNK         0.0000 
     32 C32       -18.8896    6.4266    0.8642 C.ar      1 UNK         0.0000 
     33 C33       -18.2330    5.9411    2.0189 C.ar      1 UNK         0.0000 
     34 C34       -18.5731    4.7027    2.5485 C.ar      1 UNK         0.0000 
     35 C35       -19.5408    3.9204    1.9323 C.ar      1 UNK         0.0000 
     36 C36       -20.1744    4.3663    0.7774 C.ar      1 UNK         0.0000 
     37 C37       -19.8463    5.6018    0.2264 C.ar      1 UNK         0.0000 
     38 C38       -17.1910    9.2997   -1.2579 C.2       1 UNK         0.0000 
     39 O39       -16.6210    9.9112   -0.3663 O.2       1 UNK         0.0000 
     40 N40       -17.1595    9.6838   -2.5407 N.am      1 UNK         0.0000 
     41 C41       -16.5135   10.9252   -2.9764 C.3       1 UNK         0.0000 
     42 H42       -16.2072   11.5393   -2.1240 H         1 UNK         0.0000 
     43 C43       -15.2371   10.6457   -3.8034 C.2       1 UNK         0.0000 
     44 O44       -15.0487    9.5438   -4.3918 O.2       1 UNK         0.0000 
     45 N45       -14.3384   11.6377   -3.8937 N.am      1 UNK         0.0000 
     46 C46       -13.0067   11.4888   -4.4958 C.3       1 UNK         0.0000 
     47 H47       -13.1675   11.1712   -5.5250 H         1 UNK         0.0000 
     48 C48       -12.2409   12.8338   -4.5283 C.3       1 UNK         0.0000 
     49 C49       -12.9081   13.9055   -5.4260 C.3       1 UNK         0.0000 
     50 C50       -12.2401   15.3053   -5.3964 C.3       1 UNK         0.0000 
     51 C51       -11.0138   15.5420   -6.3175 C.3       1 UNK         0.0000 
     52 N52        -9.8160   14.7716   -5.9363 N.4       1 UNK         0.0000 
     53 H53        -9.6118   14.8838   -4.9515 H         1 UNK         0.0000 
     54 H54        -9.9307   13.7928   -6.1520 H         1 UNK         0.0000 
     55 H55        -9.0161   15.1192   -6.4579 H         1 UNK         0.0000 
     56 C56       -17.5515   11.7598   -3.7402 C.3       1 UNK         0.0000 
     57 C57       -18.6844   12.2450   -2.8862 C.ar      1 UNK         0.0000 
     58 C58       -19.7097   11.4949   -2.4032 C.ar      1 UNK         0.0000 
     59 N59       -20.4977   12.2630   -1.5739 N.pl3     1 UNK         0.0000 
     60 H60       -21.3278   11.9122   -1.0982 H         1 UNK         0.0000 
     61 C61       -20.0275   13.5528   -1.4716 C.ar      1 UNK         0.0000 
     62 C62       -18.8642   13.5716   -2.3058 C.ar      1 UNK         0.0000 
     63 C63       -20.4618   14.6891   -0.7650 C.ar      1 UNK         0.0000 
     64 C64       -19.7425   15.8902   -0.8835 C.ar      1 UNK         0.0000 
     65 C65       -18.5942   15.9447   -1.6977 C.ar      1 UNK         0.0000 
     66 C66       -18.1609   14.7953   -2.3927 C.ar      1 UNK         0.0000 
     67 H67        -8.7456    5.5916   -0.6679 H         1 UNK         0.0000 
     68 H68        -8.0904    3.3133    0.0094 H         1 UNK         0.0000 
     69 H69        -6.8650    1.8600   -1.5627 H         1 UNK         0.0000 
     70 H70        -6.2901    2.6649   -3.8268 H         1 UNK         0.0000 
     71 H71        -6.9315    4.9392   -4.5285 H         1 UNK         0.0000 
     72 H72        -7.3361    7.3710   -3.2886 H         1 UNK         0.0000 
     73 H73        -8.7609    7.3368   -2.2554 H         1 UNK         0.0000 
     74 H74        -9.1525    9.9198   -5.4801 H         1 UNK         0.0000 
     75 H75        -7.8432    8.7561   -5.5204 H         1 UNK         0.0000 
     76 H76        -8.3384    9.4688   -3.9897 H         1 UNK         0.0000 
     77 H77       -11.4956    9.5840   -5.4539 H         1 UNK         0.0000 
     78 H78       -10.5054    5.9182   -2.8431 H         1 UNK         0.0000 
     79 H79       -11.5660    4.0019   -3.7044 H         1 UNK         0.0000 
     80 H80       -13.1457    4.6774   -3.5475 H         1 UNK         0.0000 
     81 H81       -11.5072    4.2985   -0.9889 H         1 UNK         0.0000 
     82 H82       -12.0637    2.9085   -1.8441 H         1 UNK         0.0000 
     83 H83       -13.8275    2.9565   -0.5373 H         1 UNK         0.0000 
     84 H84       -14.5188    4.0591   -1.6577 H         1 UNK         0.0000 
     85 H85       -13.2687    4.5832    1.0978 H         1 UNK         0.0000 
     86 H86       -14.9326    4.7980    0.6398 H         1 UNK         0.0000 
     87 H87       -12.5739    6.5731    0.1190 H         1 UNK         0.0000 
     88 H88       -14.0626    7.0269    0.8852 H         1 UNK         0.0000 
     89 H89       -13.6520    6.2671   -1.9852 H         1 UNK         0.0000 
     90 H90       -13.6809    7.9509   -1.4412 H         1 UNK         0.0000 
     91 H91       -16.2661    6.9653    0.1569 H         1 UNK         0.0000 
     92 H92       -19.5044    8.3308    0.1637 H         1 UNK         0.0000 
     93 H93       -18.0637    8.3752    1.1344 H         1 UNK         0.0000 
     94 H94       -17.5236    6.5595    2.5532 H         1 UNK         0.0000 
     95 H95       -18.1203    4.3705    3.4759 H         1 UNK         0.0000 
     96 H96       -19.8320    2.9835    2.3921 H         1 UNK         0.0000 
     97 H97       -20.9684    3.7707    0.3489 H         1 UNK         0.0000 
     98 H98       -20.3962    5.9576   -0.6326 H         1 UNK         0.0000 
     99 H99       -17.8571    9.2883   -3.1460 H         1 UNK         0.0000 
    100 H100      -14.4728   12.4860   -3.3588 H         1 UNK         0.0000 
    101 H101      -11.2317   12.6487   -4.8890 H         1 UNK         0.0000 
    102 H102      -12.1311   13.2221   -3.5126 H         1 UNK         0.0000 
    103 H103      -13.9423   14.0501   -5.0920 H         1 UNK         0.0000 
    104 H104      -12.9928   13.5523   -6.4583 H         1 UNK         0.0000 
    105 H105      -11.9758   15.5591   -4.3657 H         1 UNK         0.0000 
    106 H106      -13.0054   16.0369   -5.6629 H         1 UNK         0.0000 
    107 H107      -10.7438   16.5959   -6.2631 H         1 UNK         0.0000 
    108 H108      -11.2689   15.3439   -7.3607 H         1 UNK         0.0000 
    109 H109      -17.9381   11.2036   -4.5893 H         1 UNK         0.0000 
    110 H110      -17.0937   12.6609   -4.1440 H         1 UNK         0.0000 
    111 H111      -19.8774   10.4461   -2.6025 H         1 UNK         0.0000 
    112 H112      -21.3373   14.6535   -0.1409 H         1 UNK         0.0000 
    113 H113      -20.0710   16.7767   -0.3589 H         1 UNK         0.0000 
    114 H114      -18.0574   16.8739   -1.7907 H         1 UNK         0.0000 
    115 H115      -17.2855   14.8797   -3.0105 H         1 UNK         0.0000 
    116 H116      -11.7187   12.3065  -11.8724 H         1 UNK         0.0000 
    117 C117      -12.6613   12.1629  -11.3583 C.ar      1 UNK         0.0000 
    118 H118      -11.9449   12.9440   -9.5110 H         1 UNK         0.0000 
    119 C119      -12.7978   12.5235  -10.0230 C.ar      1 UNK         0.0000 
    120 C120      -13.7385   11.6400  -12.0598 C.ar      1 UNK         0.0000 
    121 H121      -13.6278   11.3847  -13.1072 H         1 UNK         0.0000 
    122 C122      -14.0213   12.3665   -9.3751 C.ar      1 UNK         0.0000 
    123 C123      -14.9661   11.4706  -11.4333 C.ar      1 UNK         0.0000 
    124 H124      -12.3710    8.1716  -10.8691 H         1 UNK         0.0000 
    125 C125      -15.1359   11.8523  -10.0822 C.ar      1 UNK         0.0000 
    126 H126      -14.1221   12.6672   -8.3445 H         1 UNK         0.0000 
    127 C127      -12.8555    7.6667  -10.0249 C.3       1 UNK         0.0000 
    128 H128      -10.8597    7.2378   -9.5044 H         1 UNK         0.0000 
    129 H129      -15.7961   11.0798  -12.0073 H         1 UNK         0.0000 
    130 H130      -14.7255    7.7942  -11.1455 H         1 UNK         0.0000 
    131 C131      -14.1325    7.0257  -10.6365 C.3       1 UNK         0.0000 
    132 H132      -13.8246    6.3423  -11.4344 H         1 UNK         0.0000 
    133 C133      -11.8032    6.7000   -9.4023 C.3       1 UNK         0.0000 
    134 H134      -13.0795    8.4999   -9.3578 H         1 UNK         0.0000 
    135 H135      -11.6786    5.8080  -10.0165 H         1 UNK         0.0000 
    136 C136      -16.4834   11.6181   -9.3955 C.3       1 UNK         0.0000 
    137 H137      -16.7876   12.5669   -8.9476 H         1 UNK         0.0000 
    138 O138      -14.9380    8.4677   -6.8418 O.2       1 UNK         0.0000 
    139 C139      -15.0541    6.2387   -9.6873 C.3       1 UNK         0.0000 
    140 C140      -11.9005    6.3275   -7.8948 C.3       1 UNK         0.0000 
    141 H141      -15.9817   10.9356   -7.4050 H         1 UNK         0.0000 
    142 H142      -17.2343   11.3933  -10.1601 H         1 UNK         0.0000 
    143 C143      -16.4520   10.5275   -8.2947 C.3       1 UNK         0.0000 
    144 C144      -15.3582    8.3465   -8.0298 C.2       1 UNK         0.0000 
    145 H145      -12.2056    7.2163   -7.3373 H         1 UNK         0.0000 
    146 N146      -15.6669    9.4001   -8.7892 N.am      1 UNK         0.0000 
    147 H147      -10.8896    6.1154   -7.5309 H         1 UNK         0.0000 
    148 H148      -15.7985    5.7365  -10.3088 H         1 UNK         0.0000 
    149 C149      -15.8557    7.0092   -8.6026 C.3       1 UNK         0.0000 
    150 H150      -14.5122    5.4025   -9.2630 H         1 UNK         0.0000 
    151 H151      -10.2434    2.1985  -11.7909 H         1 UNK         0.0000 
    152 H152      -16.8422    7.2137   -9.0347 H         1 UNK         0.0000 
    153 H153      -21.2320   13.1933   -6.9968 H         1 UNK         0.0000 
    154 H154       -8.4006    0.9793  -10.6851 H         1 UNK         0.0000 
    155 N155      -12.7373    5.1498   -7.5566 N.am      1 UNK         0.0000 
    156 C156      -10.3613    1.8480  -10.7767 C.ar      1 UNK         0.0000 
    157 H157      -15.9121    9.2346   -9.7617 H         1 UNK         0.0000 
    158 C158       -9.3231    1.1585  -10.1509 C.ar      1 UNK         0.0000 
    159 H159      -19.2670   11.7654   -6.2385 H         1 UNK         0.0000 
    160 C160      -17.8153    9.8570   -7.9909 C.2       1 UNK         0.0000 
    161 H161      -12.4352    4.2658   -7.9758 H         1 UNK         0.0000 
    162 N162      -21.3528   12.2512   -6.6246 N.pl3     1 UNK         0.0000 
    163 O163      -14.1211    6.1869   -6.0865 O.2       1 UNK         0.0000 
    164 C164      -13.7684    5.1515   -6.6863 C.2       1 UNK         0.0000 
    165 O165      -18.5060    9.4482   -8.9122 O.2       1 UNK         0.0000 
    166 C166      -11.5575    2.0608  -10.0990 C.ar      1 UNK         0.0000 
    167 C167      -20.3028   11.4599   -6.2103 C.ar      1 UNK         0.0000 
    168 H168      -16.0770    6.3609   -7.7683 H         1 UNK         0.0000 
    169 H169      -17.5674   10.0433   -6.0107 H         1 UNK         0.0000 
    170 N170      -17.9935    9.4720   -6.7171 N.am      1 UNK         0.0000 
    171 C171       -9.4696    0.6833   -8.8485 C.ar      1 UNK         0.0000 
    172 H172      -12.3651    2.5761  -10.6007 H         1 UNK         0.0000 
    173 H173      -24.1331   12.9422   -7.1656 H         1 UNK         0.0000 
    174 H174       -8.6649    0.1418   -8.3741 H         1 UNK         0.0000 
    175 C175      -22.5622   11.6068   -6.4844 C.ar      1 UNK         0.0000 
    176 C176      -11.7111    1.5738   -8.7973 C.ar      1 UNK         0.0000 
    177 C177      -10.6651    0.8900   -8.1689 C.ar      1 UNK         0.0000 
    178 C178      -23.8945   11.9761   -6.7545 C.ar      1 UNK         0.0000 
    179 C179      -14.6399    3.8901   -6.4323 C.3       1 UNK         0.0000 
    180 C180      -20.7662   10.2496   -5.7984 C.ar      1 UNK         0.0000 
    181 C181      -18.9514    8.4446   -6.2671 C.3       1 UNK         0.0000 
    182 H182      -15.0676    3.6333   -7.4047 H         1 UNK         0.0000 
    183 N183      -15.7384    4.2281   -5.4841 N.am      1 UNK         0.0000 
    184 H184      -19.4103    9.4242   -4.3981 H         1 UNK         0.0000 
    185 O185      -12.7540    2.4006   -6.8116 O.3       1 UNK         0.0000 
    186 C186      -13.0241    1.7627   -8.0637 C.3       1 UNK         0.0000 
    187 C187      -22.2179   10.3243   -5.9452 C.ar      1 UNK         0.0000 
    188 H188      -19.7273    5.9411   -5.5965 H         1 UNK         0.0000 
    189 C189      -19.9418    9.0997   -5.2877 C.3       1 UNK         0.0000 
    190 H190      -19.5199    8.0418   -7.1079 H         1 UNK         0.0000 
    191 N191      -18.7732    6.1069   -5.3020 N.am      1 UNK         0.0000 
    192 H192      -13.7109    2.3506   -8.6789 H         1 UNK         0.0000 
    193 C193      -17.0009    4.4586   -5.8730 C.2       1 UNK         0.0000 
    194 O194      -17.3566    4.4462   -7.0374 O.2       1 UNK         0.0000 
    195 C195      -18.1707    7.2754   -5.5987 C.2       1 UNK         0.0000 
    196 C196      -13.8316    2.6674   -5.9333 C.3       1 UNK         0.0000 
    197 H197      -15.5474    3.9934   -4.5198 H         1 UNK         0.0000 
    198 H198      -10.7820    0.4989   -7.1664 H         1 UNK         0.0000 
    199 C199      -24.9305   11.0701   -6.4719 C.ar      1 UNK         0.0000 
    200 H200      -13.3468    2.9358   -4.9993 H         1 UNK         0.0000 
    201 C201      -18.0200    4.9268   -4.8078 C.3       1 UNK         0.0000 
    202 H202      -25.9593   11.3422   -6.6623 H         1 UNK         0.0000 
    203 O203      -16.9599    7.4304   -5.3357 O.2       1 UNK         0.0000 
    204 H204      -20.6654    8.3565   -4.9611 H         1 UNK         0.0000 
    205 H205      -17.4815    5.2396   -3.9151 H         1 UNK         0.0000 
    206 C206      -23.2889    9.4398   -5.6793 C.ar      1 UNK         0.0000 
    207 H207      -13.4690    0.7785   -7.9145 H         1 UNK         0.0000 
    208 C208      -24.6288    9.8042   -5.9324 C.ar      1 UNK         0.0000 
    209 C209      -14.7082    1.4374   -5.6317 C.3       1 UNK         0.0000 
    210 H210      -23.1043    8.4643   -5.2679 H         1 UNK         0.0000 
    211 H211      -15.3066    1.1477   -6.4991 H         1 UNK         0.0000 
    212 H212      -15.4031    1.6135   -4.8085 H         1 UNK         0.0000 
    213 C213      -18.9325    3.7542   -4.3953 C.3       1 UNK         0.0000 
    214 H214      -25.4292    9.1167   -5.7145 H         1 UNK         0.0000 
    215 H215      -19.5880    3.4976   -5.2312 H         1 UNK         0.0000 
    216 H216      -14.0948    0.5821   -5.3524 H         1 UNK         0.0000 
    217 H217      -18.3034    2.8820   -4.2133 H         1 UNK         0.0000 
    218 H218      -20.4007    4.8946   -3.3108 H         1 UNK         0.0000 
    219 C219      -19.7584    4.0270   -3.1193 C.3       1 UNK         0.0000 
    220 H220      -19.1097    4.3300   -2.2908 H         1 UNK         0.0000 
    221 H221      -18.2815    1.2870   -2.7151 H         1 UNK         0.0000 
    222 C222      -20.6870    2.8638   -2.6761 C.3       1 UNK         0.0000 
    223 H223      -21.1675    2.4247   -3.5556 H         1 UNK         0.0000 
    224 H224      -21.5117    3.3070   -2.1160 H         1 UNK         0.0000 
    225 H225      -19.5751    0.4873   -3.3727 H         1 UNK         0.0000 
    226 N226      -19.1572    0.8293   -2.5167 N.4       1 UNK         0.0000 
    227 C227      -20.0786    1.7313   -1.8009 C.3       1 UNK         0.0000 
    228 H228      -19.5840    2.1411   -0.9186 H         1 UNK         0.0000 
    229 H229      -18.9598    0.0228   -1.9308 H         1 UNK         0.0000 
    230 H230      -20.8942    1.1097   -1.4307 H         1 UNK         0.0000 
    231 Fe231     -15.0063    7.5770   -4.9092 Fe        1 UNK         0.0000 
@<TRIPOS>BOND
     1    1    2 ar   
     2    1    6 ar   
     3    1   67 1    
     4    2    3 ar   
     5    2   68 1    
     6    3    4 ar   
     7    3   69 1    
     8    4    5 ar   
     9    4   70 1    
    10    5    6 ar   
    11    5   71 1    
    12    6    7 1    
    13    7    8 1    
    14    7   72 1    
    15    7   73 1    
    16    8    9 1    
    17    9   11 1    
    18    9   12 1    
    19    9   10 1    
    20   11   74 1    
    21   11   75 1    
    22   11   76 1    
    23   12   13 1    
    24   12   14 1    
    25   12   17 1    
    26   14   15 am   BACKBONE|DICT|INTERRES
    27   14   77 1    
    28   15   16 2    
    29   15   46 1    
    30   17   18 2    
    31   17   19 am   BACKBONE|DICT|INTERRES
    32   18  231 nc   
    33   19   20 1    
    34   19   78 1    
    35   20   21 1    
    36   20   79 1    
    37   20   80 1    
    38   21   22 1    
    39   21   81 1    
    40   21   82 1    
    41   22   23 1    
    42   22   83 1    
    43   22   84 1    
    44   23   24 1    
    45   23   85 1    
    46   23   86 1    
    47   24   25 1    
    48   24   87 1    
    49   24   88 1    
    50   25   26 1    
    51   25   89 1    
    52   25   90 1    
    53   26   27 2    
    54   26   28 am   BACKBONE|DICT|INTERRES
    55   27  231 nc   
    56   28   29 1    
    57   28   91 1    
    58   29   30 1    
    59   29   31 1    
    60   29   38 1    
    61   31   32 1    
    62   31   92 1    
    63   31   93 1    
    64   32   33 ar   
    65   32   37 ar   
    66   33   34 ar   
    67   33   94 1    
    68   34   35 ar   
    69   34   95 1    
    70   35   36 ar   
    71   35   96 1    
    72   36   37 ar   
    73   36   97 1    
    74   37   98 1    
    75   38   39 2    
    76   38   40 am   BACKBONE|DICT|INTERRES
    77   40   41 1    
    78   40   99 1    
    79   41   42 1    
    80   41   43 1    
    81   41   56 1    
    82   43   44 2    
    83   43   45 am   BACKBONE|DICT|INTERRES
    84   44  231 nc   
    85   45   46 1    
    86   45  100 1    
    87   46   47 1    
    88   46   48 1    
    89   48   49 1    
    90   48  101 1    
    91   48  102 1    
    92   49   50 1    
    93   49  103 1    
    94   49  104 1    
    95   50   51 1    
    96   50  105 1    
    97   50  106 1    
    98   51   52 1    
    99   51  107 1    
   100   51  108 1    
   101   52   53 1    
   102   52   54 1    
   103   52   55 1    
   104   56   57 1    
   105   56  109 1    
   106   56  110 1    
   107   57   58 ar   
   108   57   62 ar   
   109   58   59 ar   
   110   58  111 1    
   111   59   60 1    
   112   59   61 ar   
   113   61   62 ar   
   114   61   63 ar   
   115   62   66 ar   
   116   63   64 ar   
   117   63  112 1    
   118   64   65 ar   
   119   64  113 1    
   120   65   66 ar   
   121   65  114 1    
   122   66  115 1    
   123  116  117 1    
   124  117  119 ar   
   125  117  120 ar   
   126  118  119 1    
   127  119  122 ar   
   128  120  121 1    
   129  120  123 ar   
   130  122  126 1    
   131  122  125 ar   
   132  123  129 1    
   133  123  125 ar   
   134  124  127 1    
   135  125  136 1    
   136  127  131 1    
   137  127  134 1    
   138  127  133 1    
   139  128  133 1    
   140  130  131 1    
   141  131  139 1    
   142  131  132 1    
   143  133  135 1    
   144  133  140 1    
   145  136  137 1    
   146  136  142 1    
   147  136  143 1    
   148  138  144 2    
   149  138  231 nc   
   150  139  149 1    
   151  139  150 1    
   152  139  148 1    
   153  140  147 1    
   154  140  145 1    
   155  140  155 1    
   156  141  143 1    
   157  143  160 1    
   158  143  146 1    
   159  144  146 am   BACKBONE|DICT|INTERRES
   160  144  149 1    
   161  146  157 1    
   162  149  152 1    
   163  149  168 1    
   164  151  156 1    
   165  153  162 1    
   166  154  158 1    
   167  155  161 1    
   168  155  164 am   BACKBONE|DICT|INTERRES
   169  156  158 ar   
   170  156  166 ar   
   171  158  171 ar   
   172  159  167 1    
   173  160  165 2    
   174  160  170 am   BACKBONE|DICT|INTERRES
   175  162  175 ar   
   176  162  167 ar   
   177  163  164 2    
   178  163  231 nc   
   179  164  179 1    
   180  166  176 ar   
   181  166  172 1    
   182  167  180 ar   
   183  169  170 1    
   184  170  181 1    
   185  171  177 ar   
   186  171  174 1    
   187  173  178 1    
   188  175  187 ar   
   189  175  178 ar   
   190  176  186 1    
   191  176  177 ar   
   192  177  198 1    
   193  178  199 ar   
   194  179  182 1    
   195  179  183 1    
   196  179  196 1    
   197  180  187 ar   
   198  180  189 1    
   199  181  190 1    
   200  181  195 1    
   201  181  189 1    
   202  183  193 am   BACKBONE|DICT|INTERRES
   203  183  197 1    
   204  184  189 1    
   205  185  186 1    
   206  185  196 1    
   207  186  207 1    
   208  186  192 1    
   209  187  206 ar   
   210  188  191 1    
   211  189  204 1    
   212  191  201 1    
   213  191  195 am   BACKBONE|DICT|INTERRES
   214  193  194 2    
   215  193  201 1    
   216  195  203 2    
   217  196  209 1    
   218  196  200 1    
   219  199  208 ar   
   220  199  202 1    
   221  201  205 1    
   222  201  213 1    
   223  203  231 nc   
   224  206  210 1    
   225  206  208 ar   
   226  208  214 1    
   227  209  212 1    
   228  209  216 1    
   229  209  211 1    
   230  213  219 1    
   231  213  217 1    
   232  213  215 1    
   233  218  219 1    
   234  219  222 1    
   235  219  220 1    
   236  221  226 1    
   237  222  227 1    
   238  222  223 1    
   239  222  224 1    
   240  225  226 1    
   241  226  229 1    
   242  226  227 1    
   243  227  230 1    
   244  227  228 1    
@<TRIPOS>SUBSTRUCTURE
     1 UNK         1 GROUP             0       ****    0 ROOT    
@<TRIPOS>MOLECULE
270_c1
107   112    1
SMALL
USER_CHARGES


@<TRIPOS>ATOM
      1 C1        -15.3401    2.6436   13.4852 C.ar      1 UNK         0.0000 
      2 C2        -15.3423    2.0184   14.7309 C.ar      1 UNK         0.0000 
      3 C3        -16.3161    1.0664   15.0269 C.ar      1 UNK         0.0000 
      4 C4        -17.2856    0.7362   14.0837 C.ar      1 UNK         0.0000 
      5 C5        -17.2851    1.3588   12.8370 C.ar      1 UNK         0.0000 
      6 C6        -16.3135    2.3184   12.5233 C.ar      1 UNK         0.0000 
      7 N7        -16.4116    2.8988   11.2342 N.am      1 UNK         0.0000 
      8 C8        -15.5935    3.7988   10.6407 C.2       1 UNK         0.0000 
      9 O9        -14.5789    4.2471   11.1507 O.2       1 UNK         0.0000 
     10 C10       -15.9375    4.3106    9.2269 C.3       1 UNK         0.0000 
     11 C11       -17.2161    3.7264    8.5633 C.3       1 UNK         0.0000 
     12 C12       -17.4656    4.1971    7.1176 C.2       1 UNK         0.0000 
     13 O13       -18.3062    3.6054    6.4532 O.2       1 UNK         0.0000 
     14 N14       -16.7582    5.2293    6.6208 N.am      1 UNK         0.0000 
     15 C15       -16.7816    5.7077    5.2351 C.3       1 UNK         0.0000 
     16 C16       -18.1438    6.2076    4.7171 C.3       1 UNK         0.0000 
     17 C17       -18.0625    6.7416    3.2689 C.3       1 UNK         0.0000 
     18 C18       -19.3926    7.3119    2.7354 C.3       1 UNK         0.0000 
     19 C19       -19.8657    8.5245    3.5614 C.3       1 UNK         0.0000 
     20 N20       -20.6775    9.4999    2.8133 N.am      1 UNK         0.0000 
     21 O21       -21.9824    9.4281    3.0996 O.co2     1 UNK         0.0000 
     22 C22       -20.1221   10.5282    2.1229 C.2       1 UNK         0.0000 
     23 O23       -20.8385   11.5130    1.9089 O.co2     1 UNK         0.0000 
     24 C24       -18.6736   10.4858    1.5931 C.3       1 UNK         0.0000 
     25 C25       -18.2078   11.7116    0.7400 C.3       1 UNK         0.0000 
     26 C26       -19.1664   12.1216   -0.3871 C.2       1 UNK         0.0000 
     27 O27       -19.7719   13.1864   -0.3018 O.2       1 UNK         0.0000 
     28 N28       -19.3834   11.2233   -1.3622 N.am      1 UNK         0.0000 
     29 C29       -20.5577   11.1921   -2.2370 C.3       1 UNK         0.0000 
     30 C30       -20.7847   12.4175   -3.1498 C.3       1 UNK         0.0000 
     31 C31       -22.2783   12.7609   -3.3712 C.3       1 UNK         0.0000 
     32 C32       -22.9892   13.2408   -2.0820 C.3       1 UNK         0.0000 
     33 C33       -23.7641   12.1726   -1.2365 C.3       1 UNK         0.0000 
     34 N34       -23.5063   12.1660    0.2279 N.am      1 UNK         0.0000 
     35 O35       -23.2902   10.9385    0.7355 O.co2     1 UNK         0.0000 
     36 C36       -23.5095   13.2798    1.0110 C.2       1 UNK         0.0000 
     37 O37       -23.1083   13.1598    2.1763 O.co2     1 UNK         0.0000 
     38 C38       -24.0230   14.6558    0.5438 C.3       1 UNK         0.0000 
     39 C39       -25.5438   14.7341    0.2331 C.3       1 UNK         0.0000 
     40 C40       -26.3973   14.2942    1.4185 C.2       1 UNK         0.0000 
     41 O41       -26.8718   13.1677    1.4504 O.2       1 UNK         0.0000 
     42 N42       -26.4753   15.1742    2.4270 N.am      1 UNK         0.0000 
     43 C43       -26.7665   14.9487    3.8463 C.3       1 UNK         0.0000 
     44 C44       -27.7527   13.8306    4.2702 C.3       1 UNK         0.0000 
     45 C45       -27.0737   12.4840    4.6118 C.3       1 UNK         0.0000 
     46 C46       -26.1567   12.5055    5.8642 C.3       1 UNK         0.0000 
     47 C47       -25.1166   11.3672    5.9466 C.3       1 UNK         0.0000 
     48 N48       -24.0258   11.4563    4.9526 N.am      1 UNK         0.0000 
     49 O49       -24.3824   11.1069    3.7034 O.co2     1 UNK         0.0000 
     50 C50       -22.7719   11.8755    5.2711 C.2       1 UNK         0.0000 
     51 O51       -21.9430   11.9527    4.3596 O.co2     1 UNK         0.0000 
     52 C52       -22.3609   12.2838    6.6846 C.3       1 UNK         0.0000 
     53 H53       -14.5701    3.3785   13.3053 H         1 UNK         0.0000 
     54 H54       -14.5936    2.2712   15.4682 H         1 UNK         0.0000 
     55 H55       -16.3166    0.5847   15.9949 H         1 UNK         0.0000 
     56 H56       -18.0388   -0.0023   14.3218 H         1 UNK         0.0000 
     57 H57       -18.0469    1.0878   12.1217 H         1 UNK         0.0000 
     58 H58       -17.1965    2.5839   10.6934 H         1 UNK         0.0000 
     59 H59       -16.0356    5.3933    9.3345 H         1 UNK         0.0000 
     60 H60       -15.0638    4.0809    8.6111 H         1 UNK         0.0000 
     61 H61       -18.1081    4.0121    9.1282 H         1 UNK         0.0000 
     62 H62       -17.1370    2.6358    8.5043 H         1 UNK         0.0000 
     63 H63       -16.0605    5.6385    7.2266 H         1 UNK         0.0000 
     64 H64       -16.3892    4.9363    4.5696 H         1 UNK         0.0000 
     65 H65       -16.0636    6.5266    5.1562 H         1 UNK         0.0000 
     66 H66       -18.5149    6.9863    5.3875 H         1 UNK         0.0000 
     67 H67       -18.8755    5.3971    4.7434 H         1 UNK         0.0000 
     68 H68       -17.7212    5.9417    2.6044 H         1 UNK         0.0000 
     69 H69       -17.3027    7.5259    3.2139 H         1 UNK         0.0000 
     70 H70       -20.1665    6.5401    2.7396 H         1 UNK         0.0000 
     71 H71       -19.2676    7.5818    1.6871 H         1 UNK         0.0000 
     72 H72       -19.0041    9.0458    3.9948 H         1 UNK         0.0000 
     73 H73       -20.4179    8.1508    4.4344 H         1 UNK         0.0000 
     74 H74       -17.9952   10.3840    2.4409 H         1 UNK         0.0000 
     75 H75       -18.5276    9.5813    1.0019 H         1 UNK         0.0000 
     76 H76       -17.2189   11.5124    0.3208 H         1 UNK         0.0000 
     77 H77       -18.0343   12.5563    1.4125 H         1 UNK         0.0000 
     78 H78       -18.8199   10.3884   -1.3519 H         1 UNK         0.0000 
     79 H79       -21.4071   11.0353   -1.5747 H         1 UNK         0.0000 
     80 H80       -20.4945   10.2953   -2.8572 H         1 UNK         0.0000 
     81 H81       -20.2997   12.2279   -4.1101 H         1 UNK         0.0000 
     82 H82       -20.2833   13.3036   -2.7479 H         1 UNK         0.0000 
     83 H83       -22.8288   11.9431   -3.8480 H         1 UNK         0.0000 
     84 H84       -22.2981   13.5823   -4.1003 H         1 UNK         0.0000 
     85 H85       -23.7022   14.0178   -2.3661 H         1 UNK         0.0000 
     86 H86       -22.2282   13.7420   -1.4798 H         1 UNK         0.0000 
     87 H87       -23.5646   11.1762   -1.6452 H         1 UNK         0.0000 
     88 H88       -24.8388   12.2980   -1.3958 H         1 UNK         0.0000 
     89 H89       -23.7701   15.4081    1.2965 H         1 UNK         0.0000 
     90 H90       -23.4582   15.0071   -0.3122 H         1 UNK         0.0000 
     91 H91       -25.8063   14.2064   -0.6826 H         1 UNK         0.0000 
     92 H92       -25.7812   15.7719   -0.0080 H         1 UNK         0.0000 
     93 H93       -26.1741   16.1083    2.1938 H         1 UNK         0.0000 
     94 H94       -27.1377   15.9006    4.2323 H         1 UNK         0.0000 
     95 H95       -25.8037   14.8087    4.3401 H         1 UNK         0.0000 
     96 H96       -28.4991   13.6900    3.4805 H         1 UNK         0.0000 
     97 H97       -28.3068   14.1697    5.1487 H         1 UNK         0.0000 
     98 H98       -26.5323   12.1616    3.7285 H         1 UNK         0.0000 
     99 H99       -27.8487   11.7236    4.7681 H         1 UNK         0.0000 
    100 H100      -25.6177   13.4404    5.9825 H         1 UNK         0.0000 
    101 H101      -26.8068   12.4353    6.7361 H         1 UNK         0.0000 
    102 H102      -25.6055   10.3971    5.8163 H         1 UNK         0.0000 
    103 H103      -24.7254   11.3479    6.9656 H         1 UNK         0.0000 
    104 H104      -22.9885   13.1057    7.0292 H         1 UNK         0.0000 
    105 H105      -21.3252   12.6277    6.6935 H         1 UNK         0.0000 
    106 H106      -22.4394   11.4545    7.3911 H         1 UNK         0.0000 
    107 Fe107     -22.6552   11.2914    2.6432 Fe        1 UNK         0.0000 
@<TRIPOS>BOND
     1    1    2 ar   
     2    1    6 ar   
     3    1   53 1    
     4    2    3 ar   
     5    2   54 1    
     6    3    4 ar   
     7    3   55 1    
     8    4    5 ar   
     9    4   56 1    
    10    5    6 ar   
    11    5   57 1    
    12    6    7 1    
    13    7    8 am   BACKBONE|DICT|INTERRES
    14    7   58 1    
    15    8    9 2    
    16    8   10 1    
    17   10   11 1    
    18   10   59 1    
    19   10   60 1    
    20   11   12 1    
    21   11   61 1    
    22   11   62 1    
    23   12   13 2    
    24   12   14 am   BACKBONE|DICT|INTERRES
    25   14   15 1    
    26   14   63 1    
    27   15   16 1    
    28   15   64 1    
    29   15   65 1    
    30   16   17 1    
    31   16   66 1    
    32   16   67 1    
    33   17   18 1    
    34   17   68 1    
    35   17   69 1    
    36   18   19 1    
    37   18   70 1    
    38   18   71 1    
    39   19   20 1    
    40   19   72 1    
    41   19   73 1    
    42   20   21 1    
    43   20   22 am   BACKBONE|DICT|INTERRES
    44   21  107 nc   
    45   22   23 2    
    46   22   24 1    
    47   23  107 nc   
    48   24   25 1    
    49   24   74 1    
    50   24   75 1    
    51   25   26 1    
    52   25   76 1    
    53   25   77 1    
    54   26   27 2    
    55   26   28 am   BACKBONE|DICT|INTERRES
    56   28   29 1    
    57   28   78 1    
    58   29   30 1    
    59   29   79 1    
    60   29   80 1    
    61   30   31 1    
    62   30   81 1    
    63   30   82 1    
    64   31   32 1    
    65   31   83 1    
    66   31   84 1    
    67   32   33 1    
    68   32   85 1    
    69   32   86 1    
    70   33   34 1    
    71   33   87 1    
    72   33   88 1    
    73   34   35 1    
    74   34   36 am   BACKBONE|DICT|INTERRES
    75   35  107 nc   
    76   36   37 2    
    77   36   38 1    
    78   37  107 nc   
    79   38   39 1    
    80   38   89 1    
    81   38   90 1    
    82   39   40 1    
    83   39   91 1    
    84   39   92 1    
    85   40   41 2    
    86   40   42 am   BACKBONE|DICT|INTERRES
    87   42   43 1    
    88   42   93 1    
    89   43   44 1    
    90   43   94 1    
    91   43   95 1    
    92   44   45 1    
    93   44   96 1    
    94   44   97 1    
    95   45   46 1    
    96   45   98 1    
    97   45   99 1    
    98   46   47 1    
    99   46  100 1    
   100   46  101 1    
   101   47   48 1    
   102   47  102 1    
   103   47  103 1    
   104   48   49 1    
   105   48   50 am   BACKBONE|DICT|INTERRES
   106   49  107 nc   
   107   50   51 2    
   108   50   52 1    
   109   51  107 nc   
   110   52  104 1    
   111   52  105 1    
   112   52  106 1    
@<TRIPOS>SUBSTRUCTURE
     1 UNK         1 GROUP             0       ****    0 ROOT    
@<TRIPOS>MOLECULE
271_c1
112   117    1
SMALL
USER_CHARGES


@<TRIPOS>ATOM
      1 C1         -5.2539   19.5546   -5.9223 C.ar      1 UNK         0.0000 
      2 C2         -4.1247   20.3674   -5.8322 C.ar      1 UNK         0.0000 
      3 C3         -3.1010   20.2501   -6.7639 C.ar      1 UNK         0.0000 
      4 S4         -1.6496   21.2961   -6.5712 S.o2      1 UNK         0.0000 
      5 O5         -2.1374   22.6566   -6.2800 O.2       1 UNK         0.0000 
      6 O6         -0.7119   20.5970   -5.7151 O.2       1 UNK         0.0000 
      7 N7         -0.8837   21.4176   -8.1102 N.pl3     1 UNK         0.0000 
      8 C8         -3.1906   19.3155   -7.8018 C.ar      1 UNK         0.0000 
      9 C9         -4.3210   18.5025   -7.8952 C.ar      1 UNK         0.0000 
     10 C10        -5.3696   18.6161   -6.9618 C.ar      1 UNK         0.0000 
     11 N11        -6.4583   17.7329   -7.1228 N.am      1 UNK         0.0000 
     12 C12        -7.6960   17.7266   -6.5648 C.2       1 UNK         0.0000 
     13 O13        -8.1130   18.5882   -5.7994 O.2       1 UNK         0.0000 
     14 C14        -8.6079   16.5574   -7.0122 C.3       1 UNK         0.0000 
     15 C15       -10.1729   16.7626   -6.9476 C.3       1 UNK         0.0000 
     16 C16       -10.9169   16.3267   -5.6599 C.2       1 UNK         0.0000 
     17 O17       -10.2934   16.1489   -4.6197 O.2       1 UNK         0.0000 
     18 N18       -12.2552   16.1299   -5.7594 N.am      1 UNK         0.0000 
     19 C19       -13.1611   15.7364   -4.6615 C.3       1 UNK         0.0000 
     20 C20       -14.2996   14.7356   -5.0450 C.3       1 UNK         0.0000 
     21 C21       -15.6108   15.2970   -5.6978 C.3       1 UNK         0.0000 
     22 C22       -16.9365   15.1974   -4.8709 C.3       1 UNK         0.0000 
     23 C23       -18.2019   15.1312   -5.7914 C.3       1 UNK         0.0000 
     24 N24       -19.5537   14.9044   -5.1912 N.am      1 UNK         0.0000 
     25 O25       -20.1825   16.0326   -4.7754 O.co2     1 UNK         0.0000 
     26 C26       -20.2330   13.7447   -5.4422 C.2       1 UNK         0.0000 
     27 O27       -21.4696   13.8110   -5.5517 O.co2     1 UNK         0.0000 
     28 C28       -19.5580   12.3678   -5.6246 C.3       1 UNK         0.0000 
     29 C29       -18.5842   11.8367   -4.5184 C.3       1 UNK         0.0000 
     30 C30       -19.0119   11.8859   -3.0345 C.2       1 UNK         0.0000 
     31 O31       -18.3575   12.5546   -2.2453 O.2       1 UNK         0.0000 
     32 N32       -20.0229   11.0917   -2.6354 N.am      1 UNK         0.0000 
     33 C33       -20.3969   10.8098   -1.2370 C.3       1 UNK         0.0000 
     34 C34       -20.9677   12.0013   -0.4241 C.3       1 UNK         0.0000 
     35 C35       -22.3151   12.5552   -0.9506 C.3       1 UNK         0.0000 
     36 C36       -22.6535   13.9629   -0.3731 C.3       1 UNK         0.0000 
     37 C37       -23.6693   14.8200   -1.1907 C.3       1 UNK         0.0000 
     38 N38       -23.1542   15.4663   -2.4288 N.am      1 UNK         0.0000 
     39 O39       -22.2901   14.7115   -3.1010 O.co2     1 UNK         0.0000 
     40 C40       -23.5332   16.6928   -2.8870 C.2       1 UNK         0.0000 
     41 O41       -23.0013   17.0875   -3.9487 O.co2     1 UNK         0.0000 
     42 C42       -24.7198   17.4632   -2.2666 C.3       1 UNK         0.0000 
     43 C43       -26.0523   16.6594   -2.3792 C.3       1 UNK         0.0000 
     44 C44       -27.3859   17.4416   -2.3088 C.2       1 UNK         0.0000 
     45 O45       -28.0087   17.5124   -1.2553 O.2       1 UNK         0.0000 
     46 N46       -27.8666   18.0049   -3.4269 N.am      1 UNK         0.0000 
     47 C47       -28.5958   17.2580   -4.4694 C.3       1 UNK         0.0000 
     48 C48       -27.6957   16.1663   -5.0763 C.3       1 UNK         0.0000 
     49 C49       -28.0661   15.3956   -6.3416 C.3       1 UNK         0.0000 
     50 C50       -26.8231   14.5493   -6.7356 C.3       1 UNK         0.0000 
     51 C51       -25.6516   15.3993   -7.3400 C.3       1 UNK         0.0000 
     52 N52       -24.3215   15.5297   -6.6716 N.am      1 UNK         0.0000 
     53 O53       -24.1589   14.9451   -5.4720 O.co2     1 UNK         0.0000 
     54 C54       -23.3223   16.2540   -7.2513 C.2       1 UNK         0.0000 
     55 O55       -22.2469   16.3718   -6.6389 O.co2     1 UNK         0.0000 
     56 C56       -23.4779   16.9390   -8.6158 C.3       1 UNK         0.0000 
     57 H57        -6.0174   19.6492   -5.1641 H         1 UNK         0.0000 
     58 H58        -4.0301   21.0912   -5.0276 H         1 UNK         0.0000 
     59 H59        -1.3858   21.9696   -8.8054 H         1 UNK         0.0000 
     60 H60        -0.3337   20.5939   -8.3682 H         1 UNK         0.0000 
     61 H61        -2.3899   19.2291   -8.5232 H         1 UNK         0.0000 
     62 H62        -4.3604   17.7866   -8.7044 H         1 UNK         0.0000 
     63 H63        -6.3007   17.0088   -7.7951 H         1 UNK         0.0000 
     64 H64        -8.3193   15.6355   -6.5040 H         1 UNK         0.0000 
     65 H65        -8.3595   16.4021   -8.0603 H         1 UNK         0.0000 
     66 H66       -10.6157   16.1204   -7.7087 H         1 UNK         0.0000 
     67 H67       -10.4531   17.7856   -7.2065 H         1 UNK         0.0000 
     68 H68       -12.6668   16.3338   -6.6550 H         1 UNK         0.0000 
     69 H69       -13.6043   16.6407   -4.2371 H         1 UNK         0.0000 
     70 H70       -12.5933   15.2883   -3.8405 H         1 UNK         0.0000 
     71 H71       -14.5567   14.1768   -4.1460 H         1 UNK         0.0000 
     72 H72       -13.8762   13.9785   -5.7137 H         1 UNK         0.0000 
     73 H73       -15.7455   14.7189   -6.6162 H         1 UNK         0.0000 
     74 H74       -15.4670   16.3282   -6.0379 H         1 UNK         0.0000 
     75 H75       -17.0138   16.0558   -4.2042 H         1 UNK         0.0000 
     76 H76       -16.9206   14.3233   -4.2206 H         1 UNK         0.0000 
     77 H77       -18.2419   16.0533   -6.3749 H         1 UNK         0.0000 
     78 H78       -17.9881   14.3813   -6.5627 H         1 UNK         0.0000 
     79 H79       -19.0439   12.3776   -6.5870 H         1 UNK         0.0000 
     80 H80       -20.3270   11.6069   -5.7864 H         1 UNK         0.0000 
     81 H81       -17.6091   12.3138   -4.6181 H         1 UNK         0.0000 
     82 H82       -18.3458   10.7989   -4.7439 H         1 UNK         0.0000 
     83 H83       -20.5267   10.5987   -3.3517 H         1 UNK         0.0000 
     84 H84       -19.5504   10.3603   -0.7125 H         1 UNK         0.0000 
     85 H85       -21.1557   10.0270   -1.2884 H         1 UNK         0.0000 
     86 H86       -20.2225   12.7971   -0.4052 H         1 UNK         0.0000 
     87 H87       -21.0909   11.7011    0.6168 H         1 UNK         0.0000 
     88 H88       -23.1241   11.8467   -0.7390 H         1 UNK         0.0000 
     89 H89       -22.2492   12.5805   -2.0383 H         1 UNK         0.0000 
     90 H90       -21.7370   14.5461   -0.2453 H         1 UNK         0.0000 
     91 H91       -23.0411   13.8163    0.6306 H         1 UNK         0.0000 
     92 H92       -24.4890   14.1664   -1.5032 H         1 UNK         0.0000 
     93 H93       -24.1419   15.5274   -0.4949 H         1 UNK         0.0000 
     94 H94       -24.8052   18.4488   -2.7242 H         1 UNK         0.0000 
     95 H95       -24.4798   17.6566   -1.2271 H         1 UNK         0.0000 
     96 H96       -26.1373   15.9295   -1.5749 H         1 UNK         0.0000 
     97 H97       -25.9917   16.0228   -3.2504 H         1 UNK         0.0000 
     98 H98       -27.3108   18.7756   -3.7661 H         1 UNK         0.0000 
     99 H99       -28.9238   17.9564   -5.2425 H         1 UNK         0.0000 
    100 H100      -29.5272   16.8298   -4.0832 H         1 UNK         0.0000 
    101 H101      -27.6000   15.3816   -4.3289 H         1 UNK         0.0000 
    102 H102      -26.7153   16.6176   -5.2378 H         1 UNK         0.0000 
    103 H103      -28.3799   16.0677   -7.1481 H         1 UNK         0.0000 
    104 H104      -28.9216   14.7460   -6.1408 H         1 UNK         0.0000 
    105 H105      -27.1312   13.8030   -7.4573 H         1 UNK         0.0000 
    106 H106      -26.4845   13.9692   -5.8727 H         1 UNK         0.0000 
    107 H107      -26.0267   16.4124   -7.5324 H         1 UNK         0.0000 
    108 H108      -25.4624   14.9631   -8.3225 H         1 UNK         0.0000 
    109 H109      -23.2329   17.9941   -8.5054 H         1 UNK         0.0000 
    110 H110      -24.4696   16.8798   -9.0606 H         1 UNK         0.0000 
    111 H111      -22.7738   16.4962   -9.3191 H         1 UNK         0.0000 
    112 Fe112     -22.2093   15.4916   -4.8843 Fe        1 UNK         0.0000 
@<TRIPOS>BOND
     1    1    2 ar   
     2    1   10 ar   
     3    1   57 1    
     4    2    3 ar   
     5    2   58 1    
     6    3    4 1    
     7    3    8 ar   
     8    4    5 2    
     9    4    6 2    
    10    4    7 1    
    11    7   59 1    
    12    7   60 1    
    13    8    9 ar   
    14    8   61 1    
    15    9   10 ar   
    16    9   62 1    
    17   10   11 1    
    18   11   12 am   BACKBONE|DICT|INTERRES
    19   11   63 1    
    20   12   13 2    
    21   12   14 1    
    22   14   15 1    
    23   14   64 1    
    24   14   65 1    
    25   15   16 1    
    26   15   66 1    
    27   15   67 1    
    28   16   17 2    
    29   16   18 am   BACKBONE|DICT|INTERRES
    30   18   19 1    
    31   18   68 1    
    32   19   20 1    
    33   19   69 1    
    34   19   70 1    
    35   20   21 1    
    36   20   71 1    
    37   20   72 1    
    38   21   22 1    
    39   21   73 1    
    40   21   74 1    
    41   22   23 1    
    42   22   75 1    
    43   22   76 1    
    44   23   24 1    
    45   23   77 1    
    46   23   78 1    
    47   24   25 1    
    48   24   26 am   BACKBONE|DICT|INTERRES
    49   25  112 nc   
    50   26   27 2    
    51   26   28 1    
    52   27  112 nc   
    53   28   29 1    
    54   28   79 1    
    55   28   80 1    
    56   29   30 1    
    57   29   81 1    
    58   29   82 1    
    59   30   31 2    
    60   30   32 am   BACKBONE|DICT|INTERRES
    61   32   33 1    
    62   32   83 1    
    63   33   34 1    
    64   33   84 1    
    65   33   85 1    
    66   34   35 1    
    67   34   86 1    
    68   34   87 1    
    69   35   36 1    
    70   35   88 1    
    71   35   89 1    
    72   36   37 1    
    73   36   90 1    
    74   36   91 1    
    75   37   38 1    
    76   37   92 1    
    77   37   93 1    
    78   38   39 1    
    79   38   40 am   BACKBONE|DICT|INTERRES
    80   39  112 nc   
    81   40   41 2    
    82   40   42 1    
    83   41  112 nc   
    84   42   43 1    
    85   42   94 1    
    86   42   95 1    
    87   43   44 1    
    88   43   96 1    
    89   43   97 1    
    90   44   45 2    
    91   44   46 am   BACKBONE|DICT|INTERRES
    92   46   47 1    
    93   46   98 1    
    94   47   48 1    
    95   47   99 1    
    96   47  100 1    
    97   48   49 1    
    98   48  101 1    
    99   48  102 1    
   100   49   50 1    
   101   49  103 1    
   102   49  104 1    
   103   50   51 1    
   104   50  105 1    
   105   50  106 1    
   106   51   52 1    
   107   51  107 1    
   108   51  108 1    
   109   52   53 1    
   110   52   54 am   BACKBONE|DICT|INTERRES
   111   53  112 nc   
   112   54   55 2    
   113   54   56 1    
   114   55  112 nc   
   115   56  109 1    
   116   56  110 1    
   117   56  111 1    
@<TRIPOS>SUBSTRUCTURE
     1 UNK         1 GROUP             0       ****    0 ROOT    
@<TRIPOS>MOLECULE
272_c1
113   119    1
SMALL
USER_CHARGES


@<TRIPOS>ATOM
      1 C1        -17.1638   -4.1434   18.7362 C.ar      1 UNK         0.0000 
      2 C2        -17.1230   -5.4162   19.2952 C.ar      1 UNK         0.0000 
      3 C3        -17.6469   -6.5045   18.6103 C.ar      1 UNK         0.0000 
      4 C4        -18.2272   -6.3429   17.3485 C.ar      1 UNK         0.0000 
      5 C5        -18.2930   -5.0531   16.7463 C.ar      1 UNK         0.0000 
      6 C6        -17.7485   -3.9456   17.4570 C.ar      1 UNK         0.0000 
      7 C7        -18.8919   -4.8335   15.4646 C.ar      1 UNK         0.0000 
      8 C8        -18.9587   -3.5427   14.9087 C.ar      1 UNK         0.0000 
      9 C9        -18.3972   -2.4820   15.6270 C.ar      1 UNK         0.0000 
     10 C10       -17.8055   -2.6621   16.8705 C.ar      1 UNK         0.0000 
     11 N11       -19.6170   -3.3886   13.6606 N.am      1 UNK         0.0000 
     12 C12       -19.8542   -2.2518   12.9482 C.2       1 UNK         0.0000 
     13 O13       -19.4429   -1.1440   13.2630 O.2       1 UNK         0.0000 
     14 C14       -20.7026   -2.2984   11.6606 C.3       1 UNK         0.0000 
     15 C15       -21.2188   -3.6805   11.1737 C.3       1 UNK         0.0000 
     16 C16       -22.1977   -3.6871    9.9758 C.2       1 UNK         0.0000 
     17 O17       -22.5495   -4.7814    9.5494 O.2       1 UNK         0.0000 
     18 N18       -22.6453   -2.5322    9.4458 N.am      1 UNK         0.0000 
     19 C19       -23.6142   -2.4490    8.3373 C.3       1 UNK         0.0000 
     20 C20       -23.0315   -2.9171    6.9775 C.3       1 UNK         0.0000 
     21 C21       -24.0779   -3.2062    5.8884 C.3       1 UNK         0.0000 
     22 C22       -24.9698   -2.0215    5.5019 C.3       1 UNK         0.0000 
     23 C23       -25.8093   -2.4067    4.2680 C.3       1 UNK         0.0000 
     24 N24       -26.9103   -1.4891    3.9779 N.am      1 UNK         0.0000 
     25 O25       -28.1067   -2.0500    4.1420 O.co2     1 UNK         0.0000 
     26 C26       -26.7197   -0.2354    3.4748 C.2       1 UNK         0.0000 
     27 O27       -27.7383    0.3928    3.1510 O.co2     1 UNK         0.0000 
     28 C28       -25.3345    0.3859    3.2617 C.3       1 UNK         0.0000 
     29 C29       -25.3028    1.6718    2.3859 C.3       1 UNK         0.0000 
     30 C30       -25.2008    1.5317    0.8601 C.2       1 UNK         0.0000 
     31 O31       -24.8025    2.5068    0.2391 O.2       1 UNK         0.0000 
     32 N32       -25.4882    0.3665    0.2562 N.am      1 UNK         0.0000 
     33 C33       -25.1550    0.0522   -1.1454 C.3       1 UNK         0.0000 
     34 C34       -25.7881    0.9575   -2.2457 C.3       1 UNK         0.0000 
     35 C35       -27.2523    0.6991   -2.6794 C.3       1 UNK         0.0000 
     36 C36       -28.3063    0.8213   -1.5716 C.3       1 UNK         0.0000 
     37 C37       -28.7479   -0.5318   -0.9733 C.3       1 UNK         0.0000 
     38 N38       -29.2627   -0.4568    0.4155 N.am      1 UNK         0.0000 
     39 O39       -28.6521   -1.3431    1.2200 O.co2     1 UNK         0.0000 
     40 C40       -30.1792    0.4705    0.8642 C.2       1 UNK         0.0000 
     41 O41       -30.3185    0.5563    2.0949 O.co2     1 UNK         0.0000 
     42 C42       -31.0584    1.3780   -0.0355 C.3       1 UNK         0.0000 
     43 C43       -31.9707    0.6260   -1.0540 C.3       1 UNK         0.0000 
     44 C44       -33.4327    0.3085   -0.6773 C.2       1 UNK         0.0000 
     45 O45       -33.9662   -0.6519   -1.2130 O.2       1 UNK         0.0000 
     46 N46       -34.1017    1.0989    0.1763 N.am      1 UNK         0.0000 
     47 C47       -35.5336    0.9449    0.5210 C.3       1 UNK         0.0000 
     48 C48       -35.8500    0.7662    2.0309 C.3       1 UNK         0.0000 
     49 C49       -35.2174   -0.4600    2.7324 C.3       1 UNK         0.0000 
     50 C50       -33.7258   -0.2829    3.0427 C.3       1 UNK         0.0000 
     51 C51       -33.1256   -1.4970    3.7843 C.3       1 UNK         0.0000 
     52 N52       -31.6834   -1.3254    4.0136 N.am      1 UNK         0.0000 
     53 O53       -30.9417   -1.9768    3.1097 O.co2     1 UNK         0.0000 
     54 C54       -31.1878   -0.3989    4.8836 C.2       1 UNK         0.0000 
     55 O55       -30.0039   -0.0638    4.7465 O.co2     1 UNK         0.0000 
     56 C56       -32.0154    0.3190    5.9372 C.3       1 UNK         0.0000 
     57 H57       -16.7568   -3.3010   19.2714 H         1 UNK         0.0000 
     58 H58       -16.6787   -5.5585   20.2738 H         1 UNK         0.0000 
     59 H59       -17.6036   -7.4823   19.0656 H         1 UNK         0.0000 
     60 H60       -18.6315   -7.1954   16.8314 H         1 UNK         0.0000 
     61 H61       -19.3040   -5.6797   14.9418 H         1 UNK         0.0000 
     62 H62       -18.4067   -1.4721   15.2518 H         1 UNK         0.0000 
     63 H63       -17.3956   -1.8135   17.3970 H         1 UNK         0.0000 
     64 H64       -19.9617   -4.2374   13.2574 H         1 UNK         0.0000 
     65 H65       -21.5431   -1.6338   11.8742 H         1 UNK         0.0000 
     66 H66       -20.0556   -1.8494   10.9026 H         1 UNK         0.0000 
     67 H67       -21.7756   -4.1884   11.9642 H         1 UNK         0.0000 
     68 H68       -20.3861   -4.2973   10.8268 H         1 UNK         0.0000 
     69 H69       -22.2912   -1.6757    9.8400 H         1 UNK         0.0000 
     70 H70       -24.0342   -1.4432    8.2485 H         1 UNK         0.0000 
     71 H71       -24.4852   -3.0680    8.5818 H         1 UNK         0.0000 
     72 H72       -22.4788   -3.8497    7.1198 H         1 UNK         0.0000 
     73 H73       -22.3023   -2.1915    6.6077 H         1 UNK         0.0000 
     74 H74       -24.7080   -4.0488    6.1953 H         1 UNK         0.0000 
     75 H75       -23.5534   -3.5524    4.9948 H         1 UNK         0.0000 
     76 H76       -24.3496   -1.1529    5.2869 H         1 UNK         0.0000 
     77 H77       -25.6352   -1.7460    6.3223 H         1 UNK         0.0000 
     78 H78       -25.1947   -2.5833    3.3754 H         1 UNK         0.0000 
     79 H79       -26.2090   -3.4079    4.4702 H         1 UNK         0.0000 
     80 H80       -24.5561   -0.3386    3.0038 H         1 UNK         0.0000 
     81 H81       -25.0827    0.7152    4.2658 H         1 UNK         0.0000 
     82 H82       -24.3721    2.1679    2.6351 H         1 UNK         0.0000 
     83 H83       -26.0629    2.3959    2.6733 H         1 UNK         0.0000 
     84 H84       -25.9216   -0.3721    0.7894 H         1 UNK         0.0000 
     85 H85       -25.4179   -0.9944   -1.3215 H         1 UNK         0.0000 
     86 H86       -24.0662    0.0825   -1.2498 H         1 UNK         0.0000 
     87 H87       -25.1680    0.8458   -3.1364 H         1 UNK         0.0000 
     88 H88       -25.6915    2.0113   -1.9804 H         1 UNK         0.0000 
     89 H89       -27.3347   -0.2591   -3.2002 H         1 UNK         0.0000 
     90 H90       -27.5003    1.4547   -3.4233 H         1 UNK         0.0000 
     91 H91       -29.1769    1.2831   -2.0245 H         1 UNK         0.0000 
     92 H92       -27.9575    1.4903   -0.7812 H         1 UNK         0.0000 
     93 H93       -27.8417   -1.1464   -0.9906 H         1 UNK         0.0000 
     94 H94       -29.4244   -1.0934   -1.6309 H         1 UNK         0.0000 
     95 H95       -30.4041    2.0953   -0.5243 H         1 UNK         0.0000 
     96 H96       -31.6525    2.0077    0.6282 H         1 UNK         0.0000 
     97 H97       -31.5403   -0.3465   -1.2888 H         1 UNK         0.0000 
     98 H98       -32.0132    1.1874   -1.9827 H         1 UNK         0.0000 
     99 H99       -33.6003    1.8589    0.5987 H         1 UNK         0.0000 
    100 H100      -36.0908    1.7950    0.1200 H         1 UNK         0.0000 
    101 H101      -35.9461    0.0630    0.0181 H         1 UNK         0.0000 
    102 H102      -36.9338    0.6603    2.1233 H         1 UNK         0.0000 
    103 H103      -35.6140    1.6814    2.5782 H         1 UNK         0.0000 
    104 H104      -35.3755   -1.3651    2.1389 H         1 UNK         0.0000 
    105 H105      -35.7466   -0.6377    3.6704 H         1 UNK         0.0000 
    106 H106      -33.1589   -0.1488    2.1243 H         1 UNK         0.0000 
    107 H107      -33.5918    0.6326    3.6221 H         1 UNK         0.0000 
    108 H108      -33.3141   -2.3764    3.1562 H         1 UNK         0.0000 
    109 H109      -33.6667   -1.7317    4.7110 H         1 UNK         0.0000 
    110 H110      -31.9738    1.3926    5.7672 H         1 UNK         0.0000 
    111 H111      -31.5684    0.1226    6.9071 H         1 UNK         0.0000 
    112 H112      -33.0510    0.0115    5.9608 H         1 UNK         0.0000 
    113 Fe113     -29.2937   -0.8350    3.0673 Fe        1 UNK         0.0000 
@<TRIPOS>BOND
     1    1    2 ar   
     2    1    6 ar   
     3    1   57 1    
     4    2    3 ar   
     5    2   58 1    
     6    3    4 ar   
     7    3   59 1    
     8    4    5 ar   
     9    4   60 1    
    10    5    6 ar   
    11    5    7 ar   
    12    6   10 ar   
    13    7    8 ar   
    14    7   61 1    
    15    8    9 ar   
    16    8   11 1    
    17    9   10 ar   
    18    9   62 1    
    19   10   63 1    
    20   11   12 am   BACKBONE|DICT|INTERRES
    21   11   64 1    
    22   12   13 2    
    23   12   14 1    
    24   14   15 1    
    25   14   65 1    
    26   14   66 1    
    27   15   16 1    
    28   15   67 1    
    29   15   68 1    
    30   16   17 2    
    31   16   18 am   BACKBONE|DICT|INTERRES
    32   18   19 1    
    33   18   69 1    
    34   19   20 1    
    35   19   70 1    
    36   19   71 1    
    37   20   21 1    
    38   20   72 1    
    39   20   73 1    
    40   21   22 1    
    41   21   74 1    
    42   21   75 1    
    43   22   23 1    
    44   22   76 1    
    45   22   77 1    
    46   23   24 1    
    47   23   78 1    
    48   23   79 1    
    49   24   25 1    
    50   24   26 am   BACKBONE|DICT|INTERRES
    51   25  113 nc   
    52   26   27 2    
    53   26   28 1    
    54   27  113 nc   
    55   28   29 1    
    56   28   80 1    
    57   28   81 1    
    58   29   30 1    
    59   29   82 1    
    60   29   83 1    
    61   30   31 2    
    62   30   32 am   BACKBONE|DICT|INTERRES
    63   32   33 1    
    64   32   84 1    
    65   33   34 1    
    66   33   85 1    
    67   33   86 1    
    68   34   35 1    
    69   34   87 1    
    70   34   88 1    
    71   35   36 1    
    72   35   89 1    
    73   35   90 1    
    74   36   37 1    
    75   36   91 1    
    76   36   92 1    
    77   37   38 1    
    78   37   93 1    
    79   37   94 1    
    80   38   39 1    
    81   38   40 am   BACKBONE|DICT|INTERRES
    82   39  113 nc   
    83   40   41 2    
    84   40   42 1    
    85   41  113 nc   
    86   42   43 1    
    87   42   95 1    
    88   42   96 1    
    89   43   44 1    
    90   43   97 1    
    91   43   98 1    
    92   44   45 2    
    93   44   46 am   BACKBONE|DICT|INTERRES
    94   46   47 1    
    95   46   99 1    
    96   47   48 1    
    97   47  100 1    
    98   47  101 1    
    99   48   49 1    
   100   48  102 1    
   101   48  103 1    
   102   49   50 1    
   103   49  104 1    
   104   49  105 1    
   105   50   51 1    
   106   50  106 1    
   107   50  107 1    
   108   51   52 1    
   109   51  108 1    
   110   51  109 1    
   111   52   53 1    
   112   52   54 am   BACKBONE|DICT|INTERRES
   113   53  113 nc   
   114   54   55 2    
   115   54   56 1    
   116   55  113 nc   
   117   56  110 1    
   118   56  111 1    
   119   56  112 1    
@<TRIPOS>SUBSTRUCTURE
     1 UNK         1 GROUP             0       ****    0 ROOT    
@<TRIPOS>MOLECULE
273_c1
112   118    1
SMALL
USER_CHARGES


@<TRIPOS>ATOM
      1 N1        -11.0975    5.1090   13.8810 N.ar      1 UNK         0.0000 
      2 C2        -10.8266    4.4716   15.0445 C.ar      1 UNK         0.0000 
      3 C3        -11.6041    3.4290   15.5434 C.ar      1 UNK         0.0000 
      4 C4        -12.7241    3.0138   14.8182 C.ar      1 UNK         0.0000 
      5 C5        -13.0486    3.6621   13.5954 C.ar      1 UNK         0.0000 
      6 C6        -12.1900    4.7145   13.1650 C.ar      1 UNK         0.0000 
      7 C7        -14.1805    3.3144   12.7985 C.ar      1 UNK         0.0000 
      8 C8        -14.4630    3.9971   11.6074 C.ar      1 UNK         0.0000 
      9 C9        -13.5881    5.0231   11.2009 C.ar      1 UNK         0.0000 
     10 C10       -12.4731    5.3805   11.9581 C.ar      1 UNK         0.0000 
     11 N11       -15.6372    3.6102   10.9003 N.am      1 UNK         0.0000 
     12 C12       -16.1757    4.1453    9.7755 C.2       1 UNK         0.0000 
     13 O13       -15.6585    5.0657    9.1516 O.2       1 UNK         0.0000 
     14 C14       -17.5227    3.6321    9.2130 C.3       1 UNK         0.0000 
     15 C15       -18.1713    2.4302    9.9467 C.3       1 UNK         0.0000 
     16 C16       -19.5993    2.0319    9.5267 C.2       1 UNK         0.0000 
     17 O17       -20.1087    1.0947   10.1334 O.2       1 UNK         0.0000 
     18 N18       -20.2799    2.7132    8.5797 N.am      1 UNK         0.0000 
     19 C19       -21.7179    2.5182    8.3227 C.3       1 UNK         0.0000 
     20 C20       -22.1221    2.2747    6.8532 C.3       1 UNK         0.0000 
     21 C21       -23.6279    1.9716    6.7224 C.3       1 UNK         0.0000 
     22 C22       -24.1323    1.9752    5.2739 C.3       1 UNK         0.0000 
     23 C23       -25.5731    1.4417    5.2017 C.3       1 UNK         0.0000 
     24 N24       -26.4308    1.5345    3.9839 N.am      1 UNK         0.0000 
     25 O25       -27.6455    1.0713    4.3189 O.co2     1 UNK         0.0000 
     26 C26       -26.1721    2.1176    2.7629 C.2       1 UNK         0.0000 
     27 O27       -27.1562    2.4213    2.0613 O.co2     1 UNK         0.0000 
     28 C28       -24.7570    2.3022    2.1400 C.3       1 UNK         0.0000 
     29 C29       -24.5446    3.5579    1.2315 C.3       1 UNK         0.0000 
     30 C30       -24.8106    3.4166   -0.2736 C.2       1 UNK         0.0000 
     31 O31       -25.4849    4.2636   -0.8522 O.2       1 UNK         0.0000 
     32 N32       -24.2068    2.4058   -0.9299 N.am      1 UNK         0.0000 
     33 C33       -24.1381    2.2012   -2.3834 C.3       1 UNK         0.0000 
     34 C34       -25.4681    2.0543   -3.1571 C.3       1 UNK         0.0000 
     35 C35       -26.3476    0.8548   -2.7595 C.3       1 UNK         0.0000 
     36 C36       -27.0585    1.0803   -1.4362 C.3       1 UNK         0.0000 
     37 C37       -28.0957    0.0001   -1.0934 C.3       1 UNK         0.0000 
     38 N38       -28.8593    0.4146    0.0968 N.am      1 UNK         0.0000 
     39 O39       -28.3422   -0.0669    1.2430 O.co2     1 UNK         0.0000 
     40 C40       -29.7336    1.4606   -0.0026 C.2       1 UNK         0.0000 
     41 O41       -29.9593    2.1448    1.0013 O.co2     1 UNK         0.0000 
     42 C42       -30.4438    1.8249   -1.3347 C.3       1 UNK         0.0000 
     43 C43       -31.3784    0.7377   -1.9452 C.3       1 UNK         0.0000 
     44 C44       -32.3271    0.0652   -0.9609 C.2       1 UNK         0.0000 
     45 O45       -32.2112   -1.1291   -0.7108 O.2       1 UNK         0.0000 
     46 N46       -33.2440    0.8470   -0.3744 N.am      1 UNK         0.0000 
     47 C47       -34.0987    0.4173    0.7289 C.3       1 UNK         0.0000 
     48 C48       -35.0372    1.5463    1.2139 C.3       1 UNK         0.0000 
     49 C49       -35.0601    1.7715    2.7444 C.3       1 UNK         0.0000 
     50 C50       -33.7716    2.3984    3.3072 C.3       1 UNK         0.0000 
     51 C51       -32.8415    1.4200    4.0689 C.3       1 UNK         0.0000 
     52 N52       -31.3913    1.6762    3.8646 N.am      1 UNK         0.0000 
     53 O53       -30.7457    0.6039    3.3685 O.co2     1 UNK         0.0000 
     54 C54       -30.8046    2.8923    4.0842 C.2       1 UNK         0.0000 
     55 O55       -29.6563    3.0903    3.6670 O.co2     1 UNK         0.0000 
     56 C56       -31.5143    4.0261    4.8239 C.3       1 UNK         0.0000 
     57 H57        -9.9560    4.8170   15.5862 H         1 UNK         0.0000 
     58 H58       -11.3401    2.9550   16.4784 H         1 UNK         0.0000 
     59 H59       -13.3413    2.2085   15.1870 H         1 UNK         0.0000 
     60 H60       -14.8220    2.5186   13.1445 H         1 UNK         0.0000 
     61 H61       -13.7359    5.5859   10.2949 H         1 UNK         0.0000 
     62 H62       -11.8149    6.1753   11.6369 H         1 UNK         0.0000 
     63 H63       -16.1509    2.8468   11.3105 H         1 UNK         0.0000 
     64 H64       -18.1881    4.4972    9.2343 H         1 UNK         0.0000 
     65 H65       -17.3245    3.3573    8.1749 H         1 UNK         0.0000 
     66 H66       -18.2543    2.6473   11.0131 H         1 UNK         0.0000 
     67 H67       -17.5563    1.5400    9.8036 H         1 UNK         0.0000 
     68 H68       -19.8351    3.4845    8.1084 H         1 UNK         0.0000 
     69 H69       -22.2622    3.3921    8.6868 H         1 UNK         0.0000 
     70 H70       -22.1291    1.6931    8.9111 H         1 UNK         0.0000 
     71 H71       -21.5642    1.4325    6.4346 H         1 UNK         0.0000 
     72 H72       -21.8795    3.1560    6.2545 H         1 UNK         0.0000 
     73 H73       -24.2123    2.7000    7.2934 H         1 UNK         0.0000 
     74 H74       -23.8326    1.0000    7.1835 H         1 UNK         0.0000 
     75 H75       -23.4930    1.3311    4.6729 H         1 UNK         0.0000 
     76 H76       -24.1033    3.0011    4.9106 H         1 UNK         0.0000 
     77 H77       -26.1016    1.9971    5.9827 H         1 UNK         0.0000 
     78 H78       -25.5545    0.4069    5.5564 H         1 UNK         0.0000 
     79 H79       -24.5105    1.3872    1.5956 H         1 UNK         0.0000 
     80 H80       -23.9953    2.3770    2.8965 H         1 UNK         0.0000 
     81 H81       -23.4857    3.8083    1.2512 H         1 UNK         0.0000 
     82 H82       -25.0731    4.4207    1.6291 H         1 UNK         0.0000 
     83 H83       -23.7356    1.7147   -0.3690 H         1 UNK         0.0000 
     84 H84       -23.5819    1.2707   -2.5237 H         1 UNK         0.0000 
     85 H85       -23.5339    2.9868   -2.8438 H         1 UNK         0.0000 
     86 H86       -25.2203    1.9491   -4.2174 H         1 UNK         0.0000 
     87 H87       -26.0416    2.9818   -3.0913 H         1 UNK         0.0000 
     88 H88       -25.7612   -0.0642   -2.7253 H         1 UNK         0.0000 
     89 H89       -27.1088    0.7183   -3.5317 H         1 UNK         0.0000 
     90 H90       -27.5220    2.0654   -1.4789 H         1 UNK         0.0000 
     91 H91       -26.3525    1.1114   -0.6138 H         1 UNK         0.0000 
     92 H92       -27.5601   -0.9417   -0.9373 H         1 UNK         0.0000 
     93 H93       -28.7450   -0.2186   -1.9483 H         1 UNK         0.0000 
     94 H94       -31.0483    2.7228   -1.1592 H         1 UNK         0.0000 
     95 H95       -29.7215    2.1608   -2.0837 H         1 UNK         0.0000 
     96 H96       -30.7944   -0.0254   -2.4544 H         1 UNK         0.0000 
     97 H97       -31.9557    1.1741   -2.7567 H         1 UNK         0.0000 
     98 H98       -33.3175    1.8001   -0.6870 H         1 UNK         0.0000 
     99 H99       -33.4546    0.0657    1.5378 H         1 UNK         0.0000 
    100 H100      -34.6955   -0.4416    0.4078 H         1 UNK         0.0000 
    101 H101      -36.0521    1.3211    0.8684 H         1 UNK         0.0000 
    102 H102      -34.7872    2.4957    0.7337 H         1 UNK         0.0000 
    103 H103      -35.3063    0.8424    3.2650 H         1 UNK         0.0000 
    104 H104      -35.8839    2.4552    2.9540 H         1 UNK         0.0000 
    105 H105      -34.0444    3.1827    4.0087 H         1 UNK         0.0000 
    106 H106      -33.2295    2.8969    2.5008 H         1 UNK         0.0000 
    107 H107      -33.0853    1.3805    5.1385 H         1 UNK         0.0000 
    108 H108      -33.0858    0.4164    3.7144 H         1 UNK         0.0000 
    109 H109      -32.2722    4.4934    4.2028 H         1 UNK         0.0000 
    110 H110      -30.8012    4.8102    5.0861 H         1 UNK         0.0000 
    111 H111      -31.9672    3.6735    5.7476 H         1 UNK         0.0000 
    112 Fe112     -28.9237    1.4188    2.6597 Fe        1 UNK         0.0000 
@<TRIPOS>BOND
     1    1    2 ar   
     2    1    6 ar   
     3    2    3 ar   
     4    2   57 1    
     5    3    4 ar   
     6    3   58 1    
     7    4    5 ar   
     8    4   59 1    
     9    5    6 ar   
    10    5    7 ar   
    11    6   10 ar   
    12    7    8 ar   
    13    7   60 1    
    14    8    9 ar   
    15    8   11 1    
    16    9   10 ar   
    17    9   61 1    
    18   10   62 1    
    19   11   12 am   BACKBONE|DICT|INTERRES
    20   11   63 1    
    21   12   13 2    
    22   12   14 1    
    23   14   15 1    
    24   14   64 1    
    25   14   65 1    
    26   15   16 1    
    27   15   66 1    
    28   15   67 1    
    29   16   17 2    
    30   16   18 am   BACKBONE|DICT|INTERRES
    31   18   19 1    
    32   18   68 1    
    33   19   20 1    
    34   19   69 1    
    35   19   70 1    
    36   20   21 1    
    37   20   71 1    
    38   20   72 1    
    39   21   22 1    
    40   21   73 1    
    41   21   74 1    
    42   22   23 1    
    43   22   75 1    
    44   22   76 1    
    45   23   24 1    
    46   23   77 1    
    47   23   78 1    
    48   24   25 1    
    49   24   26 am   BACKBONE|DICT|INTERRES
    50   25  112 nc   
    51   26   27 2    
    52   26   28 1    
    53   27  112 nc   
    54   28   29 1    
    55   28   79 1    
    56   28   80 1    
    57   29   30 1    
    58   29   81 1    
    59   29   82 1    
    60   30   31 2    
    61   30   32 am   BACKBONE|DICT|INTERRES
    62   32   33 1    
    63   32   83 1    
    64   33   34 1    
    65   33   84 1    
    66   33   85 1    
    67   34   35 1    
    68   34   86 1    
    69   34   87 1    
    70   35   36 1    
    71   35   88 1    
    72   35   89 1    
    73   36   37 1    
    74   36   90 1    
    75   36   91 1    
    76   37   38 1    
    77   37   92 1    
    78   37   93 1    
    79   38   39 1    
    80   38   40 am   BACKBONE|DICT|INTERRES
    81   39  112 nc   
    82   40   41 2    
    83   40   42 1    
    84   41  112 nc   
    85   42   43 1    
    86   42   94 1    
    87   42   95 1    
    88   43   44 1    
    89   43   96 1    
    90   43   97 1    
    91   44   45 2    
    92   44   46 am   BACKBONE|DICT|INTERRES
    93   46   47 1    
    94   46   98 1    
    95   47   48 1    
    96   47   99 1    
    97   47  100 1    
    98   48   49 1    
    99   48  101 1    
   100   48  102 1    
   101   49   50 1    
   102   49  103 1    
   103   49  104 1    
   104   50   51 1    
   105   50  105 1    
   106   50  106 1    
   107   51   52 1    
   108   51  107 1    
   109   51  108 1    
   110   52   53 1    
   111   52   54 am   BACKBONE|DICT|INTERRES
   112   53  112 nc   
   113   54   55 2    
   114   54   56 1    
   115   55  112 nc   
   116   56  109 1    
   117   56  110 1    
   118   56  111 1    
@<TRIPOS>SUBSTRUCTURE
     1 UNK         1 GROUP             0       ****    0 ROOT    
@<TRIPOS>MOLECULE
276_c1
108   113    1
SMALL
USER_CHARGES


@<TRIPOS>ATOM
      1 O1          2.8216   -0.5518    4.3281 O.3       1 UNK         0.0000 
      2 C2          3.3498   -1.2329    3.2076 C.3       1 UNK         0.0000 
      3 C3          4.8683   -1.3681    3.3902 C.3       1 UNK         0.0000 
      4 C4          5.5273   -2.2335    2.3265 C.2       1 UNK         0.0000 
      5 C5          5.4785   -1.6743    0.9032 C.3       1 UNK         0.0000 
      6 C6          6.0838   -3.4218    2.6633 C.2       1 UNK         0.0000 
      7 C7          6.6847   -4.3394    1.7237 C.2       1 UNK         0.0000 
      8 O8          6.1525   -5.4396    1.4945 O.co2     1 UNK         0.0000 
      9 N9          7.7837   -3.9600    1.0073 N.am      1 UNK         0.0000 
     10 O10         8.1382   -4.5191   -0.1629 O.co2     1 UNK         0.0000 
     11 C11         8.8037   -3.0196    1.5531 C.3       1 UNK         0.0000 
     12 C12         9.4710   -3.4815    2.8770 C.3       1 UNK         0.0000 
     13 C13        10.9450   -3.0147    2.9911 C.3       1 UNK         0.0000 
     14 C14        11.7800   -3.3603    4.2675 C.3       1 UNK         0.0000 
     15 H15        11.6126   -2.5542    4.9856 H         1 UNK         0.0000 
     16 N16        13.2496   -3.3886    4.0384 N.am      1 UNK         0.0000 
     17 C17        13.9212   -4.5207    3.7267 C.2       1 UNK         0.0000 
     18 O18        15.1139   -4.4918    3.4690 O.2       1 UNK         0.0000 
     19 C19        11.2616   -4.6232    5.0320 C.2       1 UNK         0.0000 
     20 O20        10.3654   -4.6168    5.8690 O.2       1 UNK         0.0000 
     21 N21        11.9472   -5.7463    4.7652 N.am      1 UNK         0.0000 
     22 C22        13.0373   -5.8164    3.7644 C.3       1 UNK         0.0000 
     23 H23        13.7002   -6.6061    4.1253 H         1 UNK         0.0000 
     24 C24        12.6370   -6.1807    2.3056 C.3       1 UNK         0.0000 
     25 C25        11.3093   -6.9439    2.1000 C.3       1 UNK         0.0000 
     26 C26        10.9343   -6.9239    0.6003 C.3       1 UNK         0.0000 
     27 N27         9.6247   -7.4795    0.1780 N.am      1 UNK         0.0000 
     28 O28         8.6473   -7.3199    1.0849 O.co2     1 UNK         0.0000 
     29 C29         9.3908   -7.6471   -1.1586 C.2       1 UNK         0.0000 
     30 O30         8.2771   -7.3745   -1.6321 O.co2     1 UNK         0.0000 
     31 C31        10.4766   -8.0743   -2.0114 C.2       1 UNK         0.0000 
     32 C32        10.6810   -9.3431   -2.4357 C.2       1 UNK         0.0000 
     33 C33        11.8701   -9.6474   -3.3261 C.3       1 UNK         0.0000 
     34 C34         9.7869  -10.5454   -2.1045 C.3       1 UNK         0.0000 
     35 C35         9.6901  -11.6495   -3.1917 C.3       1 UNK         0.0000 
     36 O36         8.5273  -12.4094   -2.9019 O.3       1 UNK         0.0000 
     37 C37         7.3588  -12.1202   -3.5246 C.2       1 UNK         0.0000 
     38 O38         7.2803  -11.8267   -4.7218 O.2       1 UNK         0.0000 
     39 C39         6.1491  -12.0298   -2.5847 C.3       1 UNK         0.0000 
     40 H40         5.3555  -12.6630   -2.9967 H         1 UNK         0.0000 
     41 N41         6.5023  -12.4627   -1.2160 N.am      1 UNK         0.0000 
     42 C42         5.8103  -13.3378   -0.4727 C.2       1 UNK         0.0000 
     43 O43         4.9045  -14.0305   -0.9306 O.2       1 UNK         0.0000 
     44 C44         6.1570  -13.4048    1.0029 C.3       1 UNK         0.0000 
     45 C45         5.6355  -10.5600   -2.5731 C.3       1 UNK         0.0000 
     46 C46         4.5376  -10.3226   -1.5200 C.3       1 UNK         0.0000 
     47 C47         3.9458   -8.9034   -1.4876 C.3       1 UNK         0.0000 
     48 N48         4.8524   -7.7891   -1.0781 N.am      1 UNK         0.0000 
     49 O49         5.8262   -8.1319   -0.2316 O.co2     1 UNK         0.0000 
     50 C50         4.5616   -6.4967   -1.3941 C.2       1 UNK         0.0000 
     51 O51         5.4395   -5.6257   -1.3187 O.co2     1 UNK         0.0000 
     52 C52         3.1359   -6.2467   -1.4219 C.2       1 UNK         0.0000 
     53 C53         2.3386   -5.8750   -2.4437 C.2       1 UNK         0.0000 
     54 C54         2.8035   -5.3349   -3.7922 C.3       1 UNK         0.0000 
     55 C55         0.8407   -6.0985   -2.2102 C.3       1 UNK         0.0000 
     56 C56        -0.1684   -5.8583   -3.3449 C.3       1 UNK         0.0000 
     57 O57        -0.5317   -4.4909   -3.3899 O.3       1 UNK         0.0000 
     58 H58         1.8635   -0.5224    4.2590 H         1 UNK         0.0000 
     59 H59         2.8767   -2.2167    3.1234 H         1 UNK         0.0000 
     60 H60         3.1095   -0.6783    2.2964 H         1 UNK         0.0000 
     61 H61         5.0534   -1.8067    4.3734 H         1 UNK         0.0000 
     62 H62         5.3376   -0.3831    3.3977 H         1 UNK         0.0000 
     63 H63         5.0088   -0.6923    0.8571 H         1 UNK         0.0000 
     64 H64         4.9134   -2.3381    0.2497 H         1 UNK         0.0000 
     65 H65         6.4772   -1.5679    0.4818 H         1 UNK         0.0000 
     66 H66         6.0873   -3.7632    3.6913 H         1 UNK         0.0000 
     67 H67         8.3925   -2.0149    1.6745 H         1 UNK         0.0000 
     68 H68         9.6026   -2.8914    0.8112 H         1 UNK         0.0000 
     69 H69         8.8894   -3.1180    3.7251 H         1 UNK         0.0000 
     70 H70         9.4336   -4.5662    2.9403 H         1 UNK         0.0000 
     71 H71        10.9823   -1.9343    2.8508 H         1 UNK         0.0000 
     72 H72        11.4733   -3.4082    2.1249 H         1 UNK         0.0000 
     73 H73        13.7954   -2.5405    4.0503 H         1 UNK         0.0000 
     74 H74        11.6690   -6.5715    5.2715 H         1 UNK         0.0000 
     75 H75        12.5665   -5.2645    1.7185 H         1 UNK         0.0000 
     76 H76        13.4468   -6.7471    1.8403 H         1 UNK         0.0000 
     77 H77        10.5224   -6.4657    2.6754 H         1 UNK         0.0000 
     78 H78        11.3847   -7.9630    2.4748 H         1 UNK         0.0000 
     79 H79        10.9487   -5.8730    0.2911 H         1 UNK         0.0000 
     80 H80        11.7763   -7.3618    0.0580 H         1 UNK         0.0000 
     81 H81        11.1482   -7.2697   -2.2904 H         1 UNK         0.0000 
     82 H82        12.6317   -8.8721   -3.2370 H         1 UNK         0.0000 
     83 H83        11.5265   -9.6705   -4.3627 H         1 UNK         0.0000 
     84 H84        12.3154  -10.6091   -3.0704 H         1 UNK         0.0000 
     85 H85         8.7822  -10.1657   -1.9147 H         1 UNK         0.0000 
     86 H86        10.1130  -11.0059   -1.1686 H         1 UNK         0.0000 
     87 H87        10.5511  -12.3206   -3.1391 H         1 UNK         0.0000 
     88 H88         9.6660  -11.2221   -4.1981 H         1 UNK         0.0000 
     89 H89         7.2024  -11.9031   -0.7521 H         1 UNK         0.0000 
     90 H90         6.9085  -12.6602    1.2701 H         1 UNK         0.0000 
     91 H91         6.5322  -14.3937    1.2687 H         1 UNK         0.0000 
     92 H92         5.2623  -13.2044    1.5950 H         1 UNK         0.0000 
     93 H93         5.2703  -10.2865   -3.5660 H         1 UNK         0.0000 
     94 H94         6.4675   -9.8831   -2.3528 H         1 UNK         0.0000 
     95 H95         3.7363  -11.0397   -1.6899 H         1 UNK         0.0000 
     96 H96         4.9236  -10.5378   -0.5261 H         1 UNK         0.0000 
     97 H97         3.1019   -8.9179   -0.7923 H         1 UNK         0.0000 
     98 H98         3.5207   -8.6876   -2.4770 H         1 UNK         0.0000 
     99 H99         2.6738   -6.5443   -0.4910 H         1 UNK         0.0000 
    100 H100        3.8850   -5.1978   -3.8291 H         1 UNK         0.0000 
    101 H101        2.3538   -4.3576   -3.9775 H         1 UNK         0.0000 
    102 H102        2.5301   -5.9980   -4.6123 H         1 UNK         0.0000 
    103 H103        0.5226   -5.5749   -1.3058 H         1 UNK         0.0000 
    104 H104        0.7609   -7.1628   -1.9751 H         1 UNK         0.0000 
    105 H105       -1.0720   -6.4417   -3.1368 H         1 UNK         0.0000 
    106 H106        0.1984   -6.2008   -4.3176 H         1 UNK         0.0000 
    107 H107       -1.3987   -4.4036   -3.8026 H         1 UNK         0.0000 
    108 Fe108       7.1099   -6.4149   -0.1235 Fe        1 UNK         0.0000 
@<TRIPOS>BOND
     1    1    2 1    
     2    1   58 1    
     3    2    3 1    
     4    2   59 1    
     5    2   60 1    
     6    3    4 1    
     7    3   61 1    
     8    3   62 1    
     9    4    5 1    
    10    4    6 2    
    11    5   63 1    
    12    5   64 1    
    13    5   65 1    
    14    6    7 1    
    15    6   66 1    
    16    7    8 2    
    17    7    9 am   BACKBONE|DICT|INTERRES
    18    8  108 nc   
    19    9   10 1    
    20    9   11 1    
    21   10  108 nc   
    22   11   12 1    
    23   11   67 1    
    24   11   68 1    
    25   12   13 1    
    26   12   69 1    
    27   12   70 1    
    28   13   14 1    
    29   13   71 1    
    30   13   72 1    
    31   14   15 1    
    32   14   16 1    
    33   14   19 1    
    34   16   17 am   BACKBONE|DICT|INTERRES
    35   16   73 1    
    36   17   18 2    
    37   17   22 1    
    38   19   20 2    
    39   19   21 am   BACKBONE|DICT|INTERRES
    40   21   22 1    
    41   21   74 1    
    42   22   24 1    
    43   22   23 1    
    44   24   25 1    
    45   24   75 1    
    46   24   76 1    
    47   25   26 1    
    48   25   77 1    
    49   25   78 1    
    50   26   27 1    
    51   26   79 1    
    52   26   80 1    
    53   27   28 1    
    54   27   29 am   BACKBONE|DICT|INTERRES
    55   28  108 nc   
    56   29   30 2    
    57   29   31 1    
    58   30  108 nc   
    59   31   32 2    
    60   31   81 1    
    61   32   33 1    
    62   32   34 1    
    63   33   82 1    
    64   33   83 1    
    65   33   84 1    
    66   34   35 1    
    67   34   85 1    
    68   34   86 1    
    69   35   36 1    
    70   35   87 1    
    71   35   88 1    
    72   36   37 1    
    73   37   38 2    
    74   37   39 1    
    75   39   40 1    
    76   39   41 1    
    77   39   45 1    
    78   41   42 am   BACKBONE|DICT|INTERRES
    79   41   89 1    
    80   42   43 2    
    81   42   44 1    
    82   44   90 1    
    83   44   91 1    
    84   44   92 1    
    85   45   46 1    
    86   45   93 1    
    87   45   94 1    
    88   46   47 1    
    89   46   95 1    
    90   46   96 1    
    91   47   48 1    
    92   47   97 1    
    93   47   98 1    
    94   48   49 1    
    95   48   50 am   BACKBONE|DICT|INTERRES
    96   49  108 nc   
    97   50   51 2    
    98   50   52 1    
    99   51  108 nc   
   100   52   53 2    
   101   52   99 1    
   102   53   54 1    
   103   53   55 1    
   104   54  100 1    
   105   54  101 1    
   106   54  102 1    
   107   55   56 1    
   108   55  103 1    
   109   55  104 1    
   110   56   57 1    
   111   56  105 1    
   112   56  106 1    
   113   57  107 1    
@<TRIPOS>SUBSTRUCTURE
     1 UNK         1 GROUP             0       ****    0 ROOT    
@<TRIPOS>MOLECULE
280_c1
171   184    1
SMALL
USER_CHARGES


@<TRIPOS>ATOM
      1 C1         -2.8149    5.3665    4.2831 C.ar      1 UNK         0.0000 
      2 C2         -2.7812    6.4300    5.1845 C.ar      1 UNK         0.0000 
      3 C3         -1.6808    6.6494    6.0254 C.ar      1 UNK         0.0000 
      4 O4         -1.6857    7.6880    6.9218 O.co2     1 UNK         0.0000 
      5 C5         -0.6052    5.7426    5.9676 C.ar      1 UNK         0.0000 
      6 O6          0.4081    5.9363    6.8486 O.3       1 UNK         0.0000 
      7 C7          1.0326    4.9494    7.5846 C.3       1 UNK         0.0000 
      8 C8         -0.6106    4.6749    5.0066 C.ar      1 UNK         0.0000 
      9 Cl9         0.7416    3.5368    4.9035 Cl        1 UNK         0.0000 
     10 C10        -1.7277    4.4959    4.1456 C.ar      1 UNK         0.0000 
     11 C11        -1.8545    3.3967    3.1195 C.2       1 UNK         0.0000 
     12 O12        -2.9026    2.7672    3.1126 O.2       1 UNK         0.0000 
     13 N13        -0.9357    3.1080    2.1404 N.am      1 UNK         0.0000 
     14 C14         0.2198    3.9192    1.8105 C.3       1 UNK         0.0000 
     15 C15         0.0000    4.5362    0.3938 C.3       1 UNK         0.0000 
     16 N16         0.7560    5.8077    0.1305 N.4       1 UNK         0.0000 
     17 C17         0.5648    6.1235   -1.3246 C.3       1 UNK         0.0000 
     18 C18         1.7563    5.5048   -2.0474 C.3       1 UNK         0.0000 
     19 C19         2.8632    5.9042   -1.1047 C.3       1 UNK         0.0000 
     20 C20         2.2300    5.5897    0.2607 C.3       1 UNK         0.0000 
     21 C21         0.1253    6.8390    1.0449 C.3       1 UNK         0.0000 
     22 C22         0.7359    8.1821    1.3994 C.2       1 UNK         0.0000 
     23 C23         0.0159    8.9620    2.2945 C.2       1 UNK         0.0000 
     24 C24        -0.9690    8.5548    3.3934 C.2       1 UNK         0.0000 
     25 O25        -0.9254    9.1741    4.6483 O.co2     1 UNK         0.0000 
     26 O26        -1.8404    7.7561    3.1255 O.co2     1 UNK         0.0000 
     27 C27         1.8485    8.8174    0.5073 C.3       1 UNK         0.0000 
     28 S28         2.0663   10.6549    0.5702 S.3       1 UNK         0.0000 
     29 C29         0.2834   10.7634    0.5000 C.3       1 UNK         0.0000 
     30 H30        -0.1497   10.1724   -0.3446 H         1 UNK         0.0000 
     31 N31        -0.1545   10.2499    1.7633 N.am      1 UNK         0.0000 
     32 C32        -0.5515   12.0680    0.7360 C.3       1 UNK         0.0000 
     33 H33        -1.4249   12.2580    0.0756 H         1 UNK         0.0000 
     34 C34        -0.9432   11.2830    1.9369 C.2       1 UNK         0.0000 
     35 O35        -1.7618   11.4683    2.8229 O.2       1 UNK         0.0000 
     36 N36         0.1679   13.1739    1.2555 N.am      1 UNK         0.0000 
     37 C37        -0.2785   14.4404    1.1915 C.2       1 UNK         0.0000 
     38 O38        -1.1439   14.7791    0.3973 O.2       1 UNK         0.0000 
     39 C39         0.2405   15.3686    2.2012 C.2       1 UNK         0.0000 
     40 N40         0.3549   14.9589    3.4262 N.2       1 UNK         0.0000 
     41 O41        -0.0593   13.7591    3.8446 O.3       1 UNK         0.0000 
     42 C42         0.6574   13.0756    4.8135 C.3       1 UNK         0.0000 
     43 C43         2.1000   12.8033    4.2448 C.3       1 UNK         0.0000 
     44 C44         0.8083   13.9726    6.0241 C.3       1 UNK         0.0000 
     45 C45         0.0252   11.7093    5.2389 C.2       1 UNK         0.0000 
     46 O46        -1.1470   11.4758    5.9841 O.co2     1 UNK         0.0000 
     47 O47         0.7586   10.7539    5.0370 O.co2     1 UNK         0.0000 
     48 C48         0.6712   16.7335    1.8557 C.2       1 UNK         0.0000 
     49 N49         1.1007   17.5928    2.8165 N.2       1 UNK         0.0000 
     50 C50         1.4912   18.7692    2.2914 C.2       1 UNK         0.0000 
     51 N51         1.9785   19.8340    3.0755 N.pl3     1 UNK         0.0000 
     52 S52         1.3372   18.8040    0.6184 S.3       1 UNK         0.0000 
     53 C53         0.7343   17.2334    0.5528 C.2       1 UNK         0.0000 
     54 H54        -3.6888    5.2550    3.6501 H         1 UNK         0.0000 
     55 H55        -3.6259    7.0864    5.1790 H         1 UNK         0.0000 
     56 H56         2.0916    4.8595    7.2685 H         1 UNK         0.0000 
     57 H57         0.5154    3.9698    7.4937 H         1 UNK         0.0000 
     58 H58         0.9935    5.2264    8.6570 H         1 UNK         0.0000 
     59 H59        -1.1464    2.3344    1.4906 H         1 UNK         0.0000 
     60 H60         1.1515    3.3221    1.8419 H         1 UNK         0.0000 
     61 H61         0.3562    4.6830    2.5755 H         1 UNK         0.0000 
     62 H62        -1.0884    4.7663    0.2800 H         1 UNK         0.0000 
     63 H63         0.2088    3.7456   -0.3621 H         1 UNK         0.0000 
     64 H64         0.5910    7.2091   -1.5193 H         1 UNK         0.0000 
     65 H65        -0.4090    5.7930   -1.7527 H         1 UNK         0.0000 
     66 H66         1.6593    4.3970   -2.0522 H         1 UNK         0.0000 
     67 H67         1.8944    5.8518   -3.0961 H         1 UNK         0.0000 
     68 H68         3.0289    6.9923   -1.2234 H         1 UNK         0.0000 
     69 H69         3.8373    5.4013   -1.2899 H         1 UNK         0.0000 
     70 H70         2.7072    6.1250    1.1051 H         1 UNK         0.0000 
     71 H71         2.4468    4.5098    0.4098 H         1 UNK         0.0000 
     72 H72        -0.2799    6.4317    1.9649 H         1 UNK         0.0000 
     73 H73        -0.8247    7.1513    0.5420 H         1 UNK         0.0000 
     74 H74         1.7229    8.6003   -0.5527 H         1 UNK         0.0000 
     75 H75         2.8203    8.3911    0.8374 H         1 UNK         0.0000 
     76 H76         0.9740   12.9653    1.8504 H         1 UNK         0.0000 
     77 H77         2.5985   13.7276    3.8867 H         1 UNK         0.0000 
     78 H78         2.0817   12.0759    3.4048 H         1 UNK         0.0000 
     79 H79         2.7595   12.3407    5.0118 H         1 UNK         0.0000 
     80 H80         1.3223   14.9245    5.7660 H         1 UNK         0.0000 
     81 H81         1.4480   13.4379    6.7004 H         1 UNK         0.0000 
     82 H82        -0.1655   14.1820    6.5050 H         1 UNK         0.0000 
     83 H83         2.0435   19.7330    4.0986 H         1 UNK         0.0000 
     84 H84         2.2705   20.7154    2.6314 H         1 UNK         0.0000 
     85 H85         0.4699   16.7053   -0.3540 H         1 UNK         0.0000 
     86 Fe86       -1.4847    9.5840    6.5539 Fe        1 UNK         0.0000 
     87 H87        -4.9274   13.8445    6.7016 H         1 UNK         0.0000 
     88 C88        -5.0578   12.9567    6.0499 C.3       1 UNK         0.0000 
     89 H89         0.6500   13.1745    9.9591 H         1 UNK         0.0000 
     90 H90        -4.6008   13.1605    5.0610 H         1 UNK         0.0000 
     91 H91         2.4054   13.1817    8.3940 H         1 UNK         0.0000 
     92 O92        -4.4299   11.8635    6.6152 O.3       1 UNK         0.0000 
     93 O93        -0.4787   11.7566    8.2992 O.co2     1 UNK         0.0000 
     94 Cl94       -6.9932   12.3306    8.3077 Cl        1 UNK         0.0000 
     95 H95        -6.0976   12.8838   15.4100 H         1 UNK         0.0000 
     96 C96         1.0523   12.2140   10.3531 C.3       1 UNK         0.0000 
     97 C97         0.4444   10.9564    8.2546 C.2       1 UNK         0.0000 
     98 H98        -6.1372   12.7692    5.8617 H         1 UNK         0.0000 
     99 C99         2.7359   12.1463    8.5542 C.3       1 UNK         0.0000 
    100 C100       -5.0493   10.7458    7.0729 C.ar      1 UNK         0.0000 
    101 H101        0.1969   11.7199   10.8560 H         1 UNK         0.0000 
    102 O102        0.3283    9.8834    7.3497 O.co2     1 UNK         0.0000 
    103 H103        1.8240   12.4718   11.1080 H         1 UNK         0.0000 
    104 C104       -5.6939   11.9600   14.9406 C.3       1 UNK         0.0000 
    105 C105        1.6208   11.3064    9.2140 C.3       1 UNK         0.0000 
    106 H106        3.5784   12.3231    9.2554 H         1 UNK         0.0000 
    107 H107        3.1211   11.6620    7.6361 H         1 UNK         0.0000 
    108 H108       -6.8732   12.3184   13.2562 H         1 UNK         0.0000 
    109 C109       -6.2475   10.7855    7.8673 C.ar      1 UNK         0.0000 
    110 C110       -5.8587   11.8891   13.4126 C.3       1 UNK         0.0000 
    111 H111       -5.1717   12.5404   12.8413 H         1 UNK         0.0000 
    112 O112       -3.3304    9.4182    5.9749 O.co2     1 UNK         0.0000 
    113 H113       -4.6282   11.8827   15.2311 H         1 UNK         0.0000 
    114 C114       -4.4771    9.5061    6.7212 C.ar      1 UNK         0.0000 
    115 H115       -7.7608   11.8793   11.2448 H         1 UNK         0.0000 
    116 H116       -7.4791   10.7872   15.2152 H         1 UNK         0.0000 
    117 C117       -6.3823   10.6887   15.3698 C.3       1 UNK         0.0000 
    118 H118       -3.0213   12.2604   13.2861 H         1 UNK         0.0000 
    119 S119       -0.8920   11.2190   13.4584 S.3       1 UNK         0.0000 
    120 O120        2.1569   10.1724    9.7987 O.3       1 UNK         0.0000 
    121 C121       -7.4110   10.8488   11.0393 C.3       1 UNK         0.0000 
    122 C122       -6.8771    9.5737    8.2720 C.ar      1 UNK         0.0000 
    123 C123       -2.7326   11.1878   13.2801 C.3       1 UNK         0.0000 
    124 N124       -5.8419   10.4413   13.0230 N.4       1 UNK         0.0000 
    125 C125       -5.8008    9.7266   14.3429 C.3       1 UNK         0.0000 
    126 H126       -6.3041    8.7331   14.3506 H         1 UNK         0.0000 
    127 N127       -8.3931   10.1176   10.2681 N.am      1 UNK         0.0000 
    128 H128       -6.1990   10.3986   16.4289 H         1 UNK         0.0000 
    129 C129       -8.1507    9.4809    9.0776 C.2       1 UNK         0.0000 
    130 C130       -5.1398    8.3286    7.1097 C.ar      1 UNK         0.0000 
    131 H131       -3.1099   10.7232   14.1947 H         1 UNK         0.0000 
    132 N132        3.4014   10.1657   10.2647 N.2       1 UNK         0.0000 
    133 C133       -7.1351   10.0708   12.3602 C.3       1 UNK         0.0000 
    134 H134       -6.4963   10.9621   10.4555 H         1 UNK         0.0000 
    135 C135       -6.3142    8.3633    7.8534 C.ar      1 UNK         0.0000 
    136 O136       -9.0039    8.7046    8.6720 O.2       1 UNK         0.0000 
    137 C137       -4.7469    9.9495   12.0874 C.3       1 UNK         0.0000 
    138 C138       -3.3552   10.5625   11.9922 C.2       1 UNK         0.0000 
    139 H139       -9.3049    9.9614   10.7260 H         1 UNK         0.0000 
    140 H140        1.4910   10.4288   12.0662 H         1 UNK         0.0000 
    141 H141        8.2615   10.9388    9.4647 H         1 UNK         0.0000 
    142 H142       -4.5091    8.9035   12.4008 H         1 UNK         0.0000 
    143 C143       -0.9130    9.5336   12.8809 C.3       1 UNK         0.0000 
    144 H144       -7.0966    8.9795   12.1224 H         1 UNK         0.0000 
    145 N145        1.5743    9.4377   12.2994 N.am      1 UNK         0.0000 
    146 H146       -4.7582    7.3540    6.8747 H         1 UNK         0.0000 
    147 C147        3.7791    9.5347   11.3272 C.2       1 UNK         0.0000 
    148 H148       -4.7582    9.5216   14.6596 H         1 UNK         0.0000 
    149 N149        6.0845   10.0731   10.7172 N.2       1 UNK         0.0000 
    150 H150       -1.6125    8.8961   13.4754 H         1 UNK         0.0000 
    151 H151       -8.0130   10.1985   13.0331 H         1 UNK         0.0000 
    152 C152       -2.5367   10.0938   10.9641 C.2       1 UNK         0.0000 
    153 N153        8.4388   10.4803   10.3711 N.pl3     1 UNK         0.0000 
    154 N154       -1.3240    9.6109   11.5092 N.am      1 UNK         0.0000 
    155 C155        0.3609    8.7089   12.4703 C.3       1 UNK         0.0000 
    156 H156       -6.7712    7.4208    8.1348 H         1 UNK         0.0000 
    157 C157        2.7712    8.8322   12.1422 C.2       1 UNK         0.0000 
    158 C158        5.2216    9.5074   11.6018 C.2       1 UNK         0.0000 
    159 C159        7.3594    9.9778   11.1259 C.2       1 UNK         0.0000 
    160 H160       -5.0923    9.6986   11.0837 H         1 UNK         0.0000 
    161 H161        9.4046   10.3868   10.7123 H         1 UNK         0.0000 
    162 C162       -0.3290    8.8318   11.1485 C.2       1 UNK         0.0000 
    163 C163       -2.8785    9.5806    9.5479 C.2       1 UNK         0.0000 
    164 H164        0.4218    7.6469   12.7899 H         1 UNK         0.0000 
    165 O165       -3.7784    8.7794    9.4046 O.co2     1 UNK         0.0000 
    166 O166        2.9685    7.6934   12.5392 O.2       1 UNK         0.0000 
    167 C167        5.8198    8.9635   12.7374 C.2       1 UNK         0.0000 
    168 O168       -0.1039    8.3580   10.0467 O.2       1 UNK         0.0000 
    169 S169        7.4868    9.1992   12.6107 S.3       1 UNK         0.0000 
    170 O170       -2.0799    9.9575    8.4593 O.co2     1 UNK         0.0000 
    171 H171        5.3114    8.4886   13.5656 H         1 UNK         0.0000 
@<TRIPOS>BOND
     1    1    2 ar   
     2    1   10 ar   
     3    1   54 1    
     4    2    3 ar   
     5    2   55 1    
     6    3    4 1    
     7    3    5 ar   
     8    4   86 nc   
     9    5    6 1    
    10    5    8 ar   
    11    6    7 1    
    12    7   56 1    
    13    7   57 1    
    14    7   58 1    
    15    8    9 1    
    16    8   10 ar   
    17   10   11 1    
    18   11   12 2    
    19   11   13 am   BACKBONE|DICT|INTERRES
    20   13   14 1    
    21   13   59 1    
    22   14   15 1    
    23   14   60 1    
    24   14   61 1    
    25   15   16 1    
    26   15   62 1    
    27   15   63 1    
    28   16   17 1    
    29   16   20 1    
    30   16   21 1    
    31   17   18 1    
    32   17   64 1    
    33   17   65 1    
    34   18   19 1    
    35   18   66 1    
    36   18   67 1    
    37   19   20 1    
    38   19   68 1    
    39   19   69 1    
    40   20   70 1    
    41   20   71 1    
    42   21   22 1    
    43   21   72 1    
    44   21   73 1    
    45   22   23 2    
    46   22   27 1    
    47   23   24 1    
    48   23   31 1    
    49   24   25 1    
    50   24   26 2    
    51   25   86 nc   
    52   27   28 1    
    53   27   74 1    
    54   27   75 1    
    55   28   29 1    
    56   29   30 1    
    57   29   31 1    
    58   29   32 1    
    59   31   34 am   BACKBONE|DICT|INTERRES
    60   32   33 1    
    61   32   34 1    
    62   32   36 1    
    63   34   35 2    
    64   36   37 am   BACKBONE|DICT|INTERRES
    65   36   76 1    
    66   37   38 2    
    67   37   39 1    
    68   39   40 2    
    69   39   48 1    
    70   40   41 1    
    71   41   42 1    
    72   42   43 1    
    73   42   44 1    
    74   42   45 1    
    75   43   77 1    
    76   43   78 1    
    77   43   79 1    
    78   44   80 1    
    79   44   81 1    
    80   44   82 1    
    81   45   46 1    
    82   45   47 2    
    83   46   86 nc   
    84   48   49 1    
    85   48   53 2    
    86   49   50 2    
    87   50   51 1    
    88   50   52 1    
    89   51   83 1    
    90   51   84 1    
    91   52   53 1    
    92   53   85 1    
    93   86  102 nc   
    94   86  112 nc   
    95   86  170 nc   
    96   87   88 1    
    97   88   98 1    
    98   88   90 1    
    99   88   92 1    
   100   89   96 1    
   101   91   99 1    
   102   92  100 1    
   103   93   97 2    
   104   94  109 1    
   105   95  104 1    
   106   96  103 1    
   107   96  101 1    
   108   96  105 1    
   109   97  102 1    
   110   97  105 1    
   111   99  106 1    
   112   99  107 1    
   113   99  105 1    
   114  100  109 ar   
   115  100  114 ar   
   116  104  110 1    
   117  104  113 1    
   118  104  117 1    
   119  105  120 1    
   120  108  110 1    
   121  109  122 ar   
   122  110  111 1    
   123  110  124 1    
   124  112  114 1    
   125  114  130 ar   
   126  115  121 1    
   127  116  117 1    
   128  117  128 1    
   129  117  125 1    
   130  118  123 1    
   131  119  143 1    
   132  119  123 1    
   133  120  132 1    
   134  121  133 1    
   135  121  134 1    
   136  121  127 1    
   137  122  129 1    
   138  122  135 ar   
   139  123  131 1    
   140  123  138 1    
   141  124  125 1    
   142  124  137 1    
   143  124  133 1    
   144  125  148 1    
   145  125  126 1    
   146  127  139 1    
   147  127  129 am   BACKBONE|DICT|INTERRES
   148  129  136 2    
   149  130  146 1    
   150  130  135 ar   
   151  132  147 2    
   152  133  144 1    
   153  133  151 1    
   154  135  156 1    
   155  137  138 1    
   156  137  160 1    
   157  137  142 1    
   158  138  152 2    
   159  140  145 1    
   160  141  153 1    
   161  143  150 1    
   162  143  154 1    
   163  143  155 1    
   164  145  157 am   BACKBONE|DICT|INTERRES
   165  145  155 1    
   166  147  158 1    
   167  147  157 1    
   168  149  159 2    
   169  149  158 1    
   170  152  163 1    
   171  152  154 1    
   172  153  161 1    
   173  153  159 1    
   174  154  162 am   BACKBONE|DICT|INTERRES
   175  155  164 1    
   176  155  162 1    
   177  157  166 2    
   178  158  167 2    
   179  159  169 1    
   180  162  168 2    
   181  163  170 1    
   182  163  165 2    
   183  167  171 1    
   184  167  169 1    
@<TRIPOS>SUBSTRUCTURE
     1 UNK         1 GROUP             0       ****    0 ROOT    
@<TRIPOS>MOLECULE
281_c1
82   91    1
SMALL
USER_CHARGES


@<TRIPOS>ATOM
      1 C1          0.3244    5.6092    3.0491 C.ar      1 UNK         0.0000 
      2 C2          0.2350    6.9935    3.2792 C.ar      1 UNK         0.0000 
      3 C3          0.5646    7.8947    2.2452 C.ar      1 UNK         0.0000 
      4 O4          0.3961    9.1514    2.3426 O.co2     1 UNK         0.0000 
      5 C5          1.0056    7.3647    1.0279 C.ar      1 UNK         0.0000 
      6 O6          1.7998    7.9977    0.2616 O.co2     1 UNK         0.0000 
      7 C7          0.6292    6.0737    0.7271 C.ar      1 UNK         0.0000 
      8 Cl8        -0.0742    5.7150   -0.8031 Cl        1 UNK         0.0000 
      9 C9          0.5672    5.1344    1.7451 C.ar      1 UNK         0.0000 
     10 C10         0.7202    3.6705    1.3952 C.2       1 UNK         0.0000 
     11 O11         0.1274    2.8067    2.0170 O.2       1 UNK         0.0000 
     12 N12         1.5249    3.2821    0.3809 N.am      1 UNK         0.0000 
     13 C13         2.6074    4.0070   -0.3203 C.3       1 UNK         0.0000 
     14 C14         2.4604    4.0468   -1.8883 C.3       1 UNK         0.0000 
     15 N15         3.1974    5.2249   -2.6825 N.4       1 UNK         0.0000 
     16 C16         3.8606    4.5229   -3.9190 C.3       1 UNK         0.0000 
     17 C17         5.2726    4.1447   -3.4722 C.3       1 UNK         0.0000 
     18 C18         5.6962    5.3822   -2.7065 C.3       1 UNK         0.0000 
     19 C19         4.4439    5.7984   -1.9140 C.3       1 UNK         0.0000 
     20 C20         2.2169    6.3246   -3.2758 C.3       1 UNK         0.0000 
     21 C21         2.5984    7.8288   -3.3845 C.2       1 UNK         0.0000 
     22 C22         1.8244    8.8565   -2.9205 C.2       1 UNK         0.0000 
     23 C23         0.3944    8.7055   -2.2063 C.2       1 UNK         0.0000 
     24 O24         0.1800    9.4673   -1.1643 O.co2     1 UNK         0.0000 
     25 O25        -0.3814    8.0429   -2.9191 O.co2     1 UNK         0.0000 
     26 C26         3.9234    8.2043   -4.0748 C.3       1 UNK         0.0000 
     27 S27         4.8337    9.4972   -3.0946 S.3       1 UNK         0.0000 
     28 C28         3.5142   10.7451   -3.4699 C.3       1 UNK         0.0000 
     29 H29         3.5082   10.7715   -4.5582 H         1 UNK         0.0000 
     30 N30         2.2184   10.1458   -3.0058 N.am      1 UNK         0.0000 
     31 C31         2.8667   12.0831   -2.8146 C.3       1 UNK         0.0000 
     32 H32         2.1944   12.4922   -3.5856 H         1 UNK         0.0000 
     33 C33         2.4201   10.9202   -1.9295 C.2       1 UNK         0.0000 
     34 O34         2.3787   10.6438   -0.7215 O.co2     1 UNK         0.0000 
     35 N35         2.9346   13.0299   -1.6148 N.am      1 UNK         0.0000 
     36 C36         1.7310   13.7083   -1.4286 C.2       1 UNK         0.0000 
     37 O37         1.1603   14.0855   -2.4526 O.2       1 UNK         0.0000 
     38 C38         0.9483   13.9323   -0.1383 C.2       1 UNK         0.0000 
     39 N39         0.5756   13.0453    0.7560 N.2       1 UNK         0.0000 
     40 O40         1.3705   11.9441    1.1573 O.3       1 UNK         0.0000 
     41 C41         1.7913   12.1847    2.5656 C.3       1 UNK         0.0000 
     42 C42         2.5101   13.5626    2.7890 C.3       1 UNK         0.0000 
     43 C43         0.5624   12.1372    3.5393 C.3       1 UNK         0.0000 
     44 C44         2.8114   11.0455    2.9128 C.2       1 UNK         0.0000 
     45 O45         2.9154   10.1480    2.0329 O.co2     1 UNK         0.0000 
     46 O46         3.5471   11.1305    3.9200 O.co2     1 UNK         0.0000 
     47 C47         0.2136   15.2568   -0.0949 C.2       1 UNK         0.0000 
     48 N48        -0.6545   15.5276    0.8786 N.2       1 UNK         0.0000 
     49 C49        -1.2598   16.6582    0.6974 C.2       1 UNK         0.0000 
     50 N50        -2.2221   17.1402    1.5292 N.pl3     1 UNK         0.0000 
     51 S51        -0.7846   17.5829   -0.6786 S.3       1 UNK         0.0000 
     52 C52         0.3339   16.3152   -1.0341 C.2       1 UNK         0.0000 
     53 H53         0.1356    4.8959    3.8494 H         1 UNK         0.0000 
     54 H54        -0.0549    7.3572    4.2589 H         1 UNK         0.0000 
     55 H55         1.4635    2.2774    0.2777 H         1 UNK         0.0000 
     56 H56         2.7500    5.0080    0.0802 H         1 UNK         0.0000 
     57 H57         3.5220    3.4696   -0.0531 H         1 UNK         0.0000 
     58 H58         1.4235    4.0364   -2.2308 H         1 UNK         0.0000 
     59 H59         2.8714    3.0990   -2.2494 H         1 UNK         0.0000 
     60 H60         3.9230    5.2417   -4.7350 H         1 UNK         0.0000 
     61 H61         3.2572    3.6858   -4.2773 H         1 UNK         0.0000 
     62 H62         5.9276    3.9358   -4.3213 H         1 UNK         0.0000 
     63 H63         5.2656    3.2547   -2.8410 H         1 UNK         0.0000 
     64 H64         6.0320    6.1710   -3.3750 H         1 UNK         0.0000 
     65 H65         6.5399    5.1748   -2.0433 H         1 UNK         0.0000 
     66 H66         4.3392    6.8672   -1.7431 H         1 UNK         0.0000 
     67 H67         4.5406    5.3551   -0.9320 H         1 UNK         0.0000 
     68 H68         1.3006    6.2399   -2.7255 H         1 UNK         0.0000 
     69 H69         1.9362    6.0004   -4.2771 H         1 UNK         0.0000 
     70 H70         3.6849    8.5880   -5.0670 H         1 UNK         0.0000 
     71 H71         4.5847    7.3725   -4.2473 H         1 UNK         0.0000 
     72 H72         3.5473   12.7950   -0.8411 H         1 UNK         0.0000 
     73 H73         1.8332   14.4042    2.6277 H         1 UNK         0.0000 
     74 H74         3.3834   13.6818    2.1399 H         1 UNK         0.0000 
     75 H75         2.8562   13.6586    3.8281 H         1 UNK         0.0000 
     76 H76        -0.1100   12.9749    3.3508 H         1 UNK         0.0000 
     77 H77         0.8685   12.2141    4.5905 H         1 UNK         0.0000 
     78 H78        -0.0503   11.2393    3.4618 H         1 UNK         0.0000 
     79 H79        -2.4944   16.6114    2.3476 H         1 UNK         0.0000 
     80 H80        -2.7040   18.0164    1.3376 H         1 UNK         0.0000 
     81 H81         0.9227   16.3890   -1.9394 H         1 UNK         0.0000 
     82 Fe82        1.3813    9.8690    0.6883 Fe        1 UNK         0.0000 
@<TRIPOS>BOND
     1    1    2 ar   
     2    1    9 ar   
     3    1   53 1    
     4    2    3 ar   
     5    2   54 1    
     6    3    4 1    
     7    3    5 ar   
     8    4   82 nc   
     9    5    6 1    
    10    5    7 ar   
    11    6   82 nc   
    12    7    8 1    
    13    7    9 ar   
    14    9   10 1    
    15   10   11 2    
    16   10   12 am   BACKBONE|DICT|INTERRES
    17   12   13 1    
    18   12   55 1    
    19   13   14 1    
    20   13   56 1    
    21   13   57 1    
    22   14   15 1    
    23   14   58 1    
    24   14   59 1    
    25   15   16 1    
    26   15   19 1    
    27   15   20 1    
    28   16   17 1    
    29   16   60 1    
    30   16   61 1    
    31   17   18 1    
    32   17   62 1    
    33   17   63 1    
    34   18   19 1    
    35   18   64 1    
    36   18   65 1    
    37   19   66 1    
    38   19   67 1    
    39   20   21 1    
    40   20   68 1    
    41   20   69 1    
    42   21   22 2    
    43   21   26 1    
    44   22   23 1    
    45   22   30 1    
    46   23   24 1    
    47   23   25 2    
    48   24   82 nc   
    49   26   27 1    
    50   26   70 1    
    51   26   71 1    
    52   27   28 1    
    53   28   29 1    
    54   28   30 1    
    55   28   31 1    
    56   30   33 am   BACKBONE|DICT|INTERRES
    57   31   32 1    
    58   31   33 1    
    59   31   35 1    
    60   33   34 2    
    61   34   82 nc   
    62   35   36 am   BACKBONE|DICT|INTERRES
    63   35   72 1    
    64   36   37 2    
    65   36   38 1    
    66   38   39 2    
    67   38   47 1    
    68   39   40 1    
    69   40   41 1    
    70   40   82 nc   
    71   41   42 1    
    72   41   43 1    
    73   41   44 1    
    74   42   73 1    
    75   42   74 1    
    76   42   75 1    
    77   43   76 1    
    78   43   77 1    
    79   43   78 1    
    80   44   45 1    
    81   44   46 2    
    82   45   82 nc   
    83   47   48 1    
    84   47   52 2    
    85   48   49 2    
    86   49   50 1    
    87   49   51 1    
    88   50   79 1    
    89   50   80 1    
    90   51   52 1    
    91   52   81 1    
@<TRIPOS>SUBSTRUCTURE
     1 UNK         1 GROUP             0       ****    0 ROOT    
