@<TRIPOS>MOLECULE
185_C_c1
63   70    1
SMALL
USER_CHARGES


@<TRIPOS>ATOM
      1 Fe1         0.2437    1.8226    1.5853 Fe        1 UNK         0.0000 
      2 C2          2.1975    2.1863   -3.2635 C.ar      1 UNK         0.0000 
      3 C3          2.4798    3.4926   -2.8681 C.ar      1 UNK         0.0000 
      4 C4          2.3471    3.8649   -1.5319 C.ar      1 UNK         0.0000 
      5 C5          1.9876    2.9292   -0.5639 C.ar      1 UNK         0.0000 
      6 O6          1.8530    3.3401    0.6386 O.co2     1 UNK         0.0000 
      7 C7          1.7212    1.5981   -0.9565 C.ar      1 UNK         0.0000 
      8 O8          1.4169    0.7196   -0.0903 O.co2     1 UNK         0.0000 
      9 C9          1.7603    1.2366   -2.3263 C.ar      1 UNK         0.0000 
     10 C10         1.2059   -0.0925   -2.8157 C.2       1 UNK         0.0000 
     11 O11         1.7383   -0.7846   -3.6939 O.2       1 UNK         0.0000 
     12 N12         0.0183   -0.3711   -2.2631 N.am      1 UNK         0.0000 
     13 C13        -0.7810   -1.5802   -2.3356 C.3       1 UNK         0.0000 
     14 C14        -1.1925   -2.0912   -0.9151 C.3       1 UNK         0.0000 
     15 H15        -0.6411   -1.5297   -0.1524 H         1 UNK         0.0000 
     16 N16        -2.6184   -1.9482   -0.5956 N.am      1 UNK         0.0000 
     17 C17        -3.4991   -0.9404   -0.6960 C.2       1 UNK         0.0000 
     18 O18        -4.6877   -1.2778   -0.7741 O.2       1 UNK         0.0000 
     19 C19        -3.1100    0.5341   -0.7631 C.ar      1 UNK         0.0000 
     20 C20        -2.2894    1.1879    0.2026 C.ar      1 UNK         0.0000 
     21 O21        -1.6919    0.5251    1.1197 O.co2     1 UNK         0.0000 
     22 C22        -2.1704    2.6001    0.1685 C.ar      1 UNK         0.0000 
     23 O23        -1.5247    3.2873    1.0309 O.co2     1 UNK         0.0000 
     24 C24        -2.7979    3.3227   -0.8432 C.ar      1 UNK         0.0000 
     25 C25        -3.5593    2.6899   -1.8172 C.ar      1 UNK         0.0000 
     26 C26        -3.7239    1.3100   -1.7683 C.ar      1 UNK         0.0000 
     27 C27        -0.8371   -3.5979   -0.7311 C.3       1 UNK         0.0000 
     28 C28        -0.5061   -3.9996    0.7249 C.3       1 UNK         0.0000 
     29 C29         0.9739   -3.7376    1.0835 C.3       1 UNK         0.0000 
     30 C30         1.2762   -3.6474    2.5928 C.3       1 UNK         0.0000 
     31 N31         0.8179   -2.3984    3.1957 N.am      1 UNK         0.0000 
     32 C32         0.8196   -2.0768    4.4971 C.2       1 UNK         0.0000 
     33 O33         1.0770   -2.9154    5.3771 O.2       1 UNK         0.0000 
     34 C34         0.4636   -0.6250    4.8305 C.ar      1 UNK         0.0000 
     35 C35         0.5780    0.4446    3.9024 C.ar      1 UNK         0.0000 
     36 O36         0.9433    0.2576    2.7042 O.co2     1 UNK         0.0000 
     37 C37         0.2339    1.7604    4.2719 C.ar      1 UNK         0.0000 
     38 O38         0.3009    2.7175    3.4378 O.co2     1 UNK         0.0000 
     39 C39        -0.2415    2.0209    5.5512 C.ar      1 UNK         0.0000 
     40 C40        -0.3604    0.9877    6.4756 C.ar      1 UNK         0.0000 
     41 C41        -0.0060   -0.3179    6.1269 C.ar      1 UNK         0.0000 
     42 H42         2.2586    1.9083   -4.3036 H         1 UNK         0.0000 
     43 H43         2.7639    4.2338   -3.5918 H         1 UNK         0.0000 
     44 H44         2.4865    4.8950   -1.2248 H         1 UNK         0.0000 
     45 H45        -0.0918    0.2116   -1.4312 H         1 UNK         0.0000 
     46 H46        -0.2655   -2.3583   -2.9034 H         1 UNK         0.0000 
     47 H47        -1.6677   -1.3753   -2.9357 H         1 UNK         0.0000 
     48 H48        -3.0486   -2.7432   -0.1722 H         1 UNK         0.0000 
     49 H49        -2.6771    4.3977   -0.8537 H         1 UNK         0.0000 
     50 H50        -4.0407    3.2900   -2.5713 H         1 UNK         0.0000 
     51 H51        -4.3690    0.8419   -2.4961 H         1 UNK         0.0000 
     52 H52        -1.6596   -4.2149   -1.1011 H         1 UNK         0.0000 
     53 H53         0.0111   -3.8734   -1.3590 H         1 UNK         0.0000 
     54 H54        -1.1660   -3.4628    1.4115 H         1 UNK         0.0000 
     55 H55        -0.7245   -5.0592    0.8687 H         1 UNK         0.0000 
     56 H56         1.5752   -4.5406    0.6520 H         1 UNK         0.0000 
     57 H57         1.3269   -2.8267    0.5936 H         1 UNK         0.0000 
     58 H58         2.3501   -3.7590    2.7523 H         1 UNK         0.0000 
     59 H59         0.7949   -4.4819    3.1066 H         1 UNK         0.0000 
     60 H60         0.8017   -1.5260    2.6504 H         1 UNK         0.0000 
     61 H61        -0.5260    3.0362    5.8030 H         1 UNK         0.0000 
     62 H62        -0.7296    1.2100    7.4634 H         1 UNK         0.0000 
     63 H63        -0.0891   -1.1133    6.8532 H         1 UNK         0.0000 
@<TRIPOS>BOND
     1    1    6 nc   
     2    1    8 nc   
     3    1   21 nc   
     4    1   23 nc   
     5    1   36 nc   
     6    1   38 nc   
     7    2    3 ar   
     8    2    9 ar   
     9    2   42 1    
    10    3    4 ar   
    11    3   43 1    
    12    4   44 1    
    13    4    5 ar   
    14    5    6 1    
    15    5    7 ar   
    16    7    8 1    
    17    7    9 ar   
    18    9   10 1    
    19   10   12 am   BACKBONE|DICT|INTERRES
    20   10   11 2    
    21   12   45 1    
    22   12   13 1    
    23   13   14 1    
    24   13   46 1    
    25   13   47 1    
    26   14   27 1    
    27   14   16 1    
    28   14   15 1    
    29   16   48 1    
    30   16   17 am   BACKBONE|DICT|INTERRES
    31   17   18 2    
    32   17   19 1    
    33   19   20 ar   
    34   19   26 ar   
    35   20   21 1    
    36   20   22 ar   
    37   22   23 1    
    38   22   24 ar   
    39   24   25 ar   
    40   24   49 1    
    41   25   26 ar   
    42   25   50 1    
    43   26   51 1    
    44   27   28 1    
    45   27   52 1    
    46   27   53 1    
    47   28   55 1    
    48   28   29 1    
    49   28   54 1    
    50   29   30 1    
    51   29   56 1    
    52   29   57 1    
    53   30   58 1    
    54   30   31 1    
    55   30   59 1    
    56   31   32 am   BACKBONE|DICT|INTERRES
    57   31   60 1    
    58   32   34 1    
    59   32   33 2    
    60   34   41 ar   
    61   34   35 ar   
    62   35   37 ar   
    63   35   36 1    
    64   37   39 ar   
    65   37   38 1    
    66   39   61 1    
    67   39   40 ar   
    68   40   62 1    
    69   40   41 ar   
    70   41   63 1    
@<TRIPOS>SUBSTRUCTURE
     1 UNK         1 GROUP             0       ****    0 ROOT    
