@<TRIPOS>MOLECULE
259_c1
48   53    1
SMALL
USER_CHARGES


@<TRIPOS>ATOM
      1 O1         -0.0544   -1.1677   -1.3242 O.co2     1 UNK         0.0000 
      2 C2          0.5572   -0.7455   -0.2829 C.2       1 UNK         0.0000 
      3 O3          0.0482   -0.5961    0.8522 O.co2     1 UNK         0.0000 
      4 C4          2.1096   -0.4338   -0.4930 C.3       1 UNK         0.0000 
      5 O5          2.6109   -0.7608   -1.7743 O.co2     1 UNK         0.0000 
      6 N6          2.3947    1.0027   -0.1646 N.am      1 UNK         0.0000 
      7 C7          2.9146    1.1301    1.0947 C.2       1 UNK         0.0000 
      8 O8          3.1865    2.1683    1.7129 O.2       1 UNK         0.0000 
      9 C9          3.2030   -0.2673    1.6329 C.3       1 UNK         0.0000 
     10 C10         3.0722   -1.1806    0.4371 C.3       1 UNK         0.0000 
     11 C11         2.0731    2.2851   -0.9164 C.3       1 UNK         0.0000 
     12 H12         1.4583    2.8468   -0.2127 H         1 UNK         0.0000 
     13 C13         3.3229    3.1227   -1.2720 C.3       1 UNK         0.0000 
     14 C14         1.0656    2.2333   -2.1331 C.2       1 UNK         0.0000 
     15 O15        -0.1209    1.9695   -1.9438 O.2       1 UNK         0.0000 
     16 N16         1.4872    2.5770   -3.3725 N.am      1 UNK         0.0000 
     17 C17         0.6368    2.5754   -4.5826 C.3       1 UNK         0.0000 
     18 C18         1.3552    2.1721   -5.9099 C.3       1 UNK         0.0000 
     19 O19         1.7703    0.8223   -6.1901 O.3       1 UNK         0.0000 
     20 C20         1.6118   -0.2341   -5.3476 C.2       1 UNK         0.0000 
     21 O21         1.1584   -0.1584   -4.1544 O.co2     1 UNK         0.0000 
     22 C22         2.0932   -1.6582   -5.9708 C.3       1 UNK         0.0000 
     23 C23         1.5957   -2.9289   -5.1067 C.3       1 UNK         0.0000 
     24 O24         2.4796   -2.4147   -4.1198 O.co2     1 UNK         0.0000 
     25 C25         0.0020   -2.7857   -5.0470 C.2       1 UNK         0.0000 
     26 O26        -0.4278   -2.3323   -3.9458 O.co2     1 UNK         0.0000 
     27 O27        -0.6675   -2.8679   -6.1005 O.co2     1 UNK         0.0000 
     28 C28         1.9514   -4.3847   -4.5172 C.3       1 UNK         0.0000 
     29 C29         1.5104   -4.6691   -2.9829 C.2       1 UNK         0.0000 
     30 O30         1.2539   -3.6962   -2.1608 O.co2     1 UNK         0.0000 
     31 O31         1.4280   -5.8758   -2.6715 O.co2     1 UNK         0.0000 
     32 H32         2.4513   -0.5018    2.3869 H         1 UNK         0.0000 
     33 H33         4.1836   -0.3355    2.1023 H         1 UNK         0.0000 
     34 H34         2.7002   -2.1745    0.6923 H         1 UNK         0.0000 
     35 H35         4.0634   -1.3244   -0.0009 H         1 UNK         0.0000 
     36 H36         3.9177    3.3228   -0.3828 H         1 UNK         0.0000 
     37 H37         3.0242    4.0868   -1.6819 H         1 UNK         0.0000 
     38 H38         3.9520    2.5952   -1.9892 H         1 UNK         0.0000 
     39 H39         2.4609    2.8166   -3.4637 H         1 UNK         0.0000 
     40 H40         0.2120    3.5734   -4.6970 H         1 UNK         0.0000 
     41 H41        -0.2351    1.9281   -4.4511 H         1 UNK         0.0000 
     42 H42         2.2283    2.8147   -6.0378 H         1 UNK         0.0000 
     43 H43         0.6762    2.4251   -6.7274 H         1 UNK         0.0000 
     44 H44         3.1742   -1.6478   -6.1392 H         1 UNK         0.0000 
     45 H45         1.6651   -1.7458   -6.9680 H         1 UNK         0.0000 
     46 H46         2.9965   -4.6793   -4.6334 H         1 UNK         0.0000 
     47 H47         1.3929   -5.1278   -5.0897 H         1 UNK         0.0000 
     48 Fe48        1.1607   -1.7529   -2.8242 Fe        1 UNK         0.0000 
@<TRIPOS>BOND
     1    1    2 1    
     2    1   48 nc   
     3    2    3 2    
     4    2    4 1    
     5    4    5 1    
     6    4    6 1    
     7    4   10 1    
     8    5   48 nc   
     9    6    7 am   BACKBONE|DICT|INTERRES
    10    6   11 1    
    11    7    8 2    
    12    7    9 1    
    13    9   10 1    
    14    9   32 1    
    15    9   33 1    
    16   10   34 1    
    17   10   35 1    
    18   11   12 1    
    19   11   13 1    
    20   11   14 1    
    21   13   36 1    
    22   13   37 1    
    23   13   38 1    
    24   14   15 2    
    25   14   16 am   BACKBONE|DICT|INTERRES
    26   16   17 1    
    27   16   39 1    
    28   17   18 1    
    29   17   40 1    
    30   17   41 1    
    31   18   19 1    
    32   18   42 1    
    33   18   43 1    
    34   19   20 1    
    35   20   21 2    
    36   20   22 1    
    37   21   48 nc   
    38   22   23 1    
    39   22   44 1    
    40   22   45 1    
    41   23   24 1    
    42   23   25 1    
    43   23   28 1    
    44   24   48 nc   
    45   25   26 1    
    46   25   27 2    
    47   26   48 nc   
    48   28   29 1    
    49   28   46 1    
    50   28   47 1    
    51   29   30 1    
    52   29   31 2    
    53   30   48 nc   
@<TRIPOS>SUBSTRUCTURE
     1 UNK         1 GROUP             0       ****    0 ROOT    
