@<TRIPOS>MOLECULE
239_B1_c1
88   96    1
SMALL
USER_CHARGES


@<TRIPOS>ATOM
      1 Fe1         0.0113    0.0123    0.0062 Fe        1 UNK         0.0000 
      2 O2          0.0220    2.2436   -0.0779 O.co2     1 UNK         0.0000 
      3 C3          0.9271    3.2823    0.1372 C.3       1 UNK         0.0000 
      4 C4          1.0509    3.8979   -1.2626 C.3       1 UNK         0.0000 
      5 C5          0.2762    4.1645    1.1918 C.3       1 UNK         0.0000 
      6 C6          1.4858    4.9510    1.7196 C.3       1 UNK         0.0000 
      7 H7          1.6114    5.8527    1.1239 H         1 UNK         0.0000 
      8 C8          1.2832    5.4551    3.1805 C.2       1 UNK         0.0000 
      9 O9          1.0866    4.7521    4.1658 O.2       1 UNK         0.0000 
     10 N10         1.3589    6.7550    3.4094 N.am      1 UNK         0.0000 
     11 N11         2.6547    4.0712    1.5950 N.3       1 UNK         0.0000 
     12 C12         2.2094    2.8289    0.9374 C.3       1 UNK         0.0000 
     13 C13         3.4055    2.0648    0.2682 C.ar      1 UNK         0.0000 
     14 N14         4.6266    2.7195    0.1913 N.ar      1 UNK         0.0000 
     15 C15         5.7333    2.0063   -0.1425 C.ar      1 UNK         0.0000 
     16 C16         5.7021    0.6628   -0.4897 C.ar      1 UNK         0.0000 
     17 C17         4.4666    0.0202   -0.4868 C.ar      1 UNK         0.0000 
     18 C18         3.3257    0.7053   -0.0861 C.ar      1 UNK         0.0000 
     19 O19         2.2682    0.0258   -0.0410 O.co2     1 UNK         0.0000 
     20 H20         1.4720    3.1909   -1.9651 H         1 UNK         0.0000 
     21 H21         0.0845    4.1659   -1.6853 H         1 UNK         0.0000 
     22 H22         1.6536    4.7933   -1.2814 H         1 UNK         0.0000 
     23 H23        -0.5338    4.7760    0.7797 H         1 UNK         0.0000 
     24 H24        -0.1620    3.5556    1.9903 H         1 UNK         0.0000 
     25 H25         1.6030    7.3824    2.6683 H         1 UNK         0.0000 
     26 H26         1.3362    6.9659    4.3890 H         1 UNK         0.0000 
     27 H27         6.6660    2.5386   -0.0460 H         1 UNK         0.0000 
     28 H28         6.5853    0.1079   -0.7346 H         1 UNK         0.0000 
     29 H29         4.3636   -1.0243   -0.7209 H         1 UNK         0.0000 
     30 O30         0.0086   -2.1530    0.0727 O.co2     1 UNK         0.0000 
     31 C31         0.0846   -3.2603    0.9091 C.2       1 UNK         0.0000 
     32 C32        -1.3278   -3.8269    1.0404 C.3       1 UNK         0.0000 
     33 C33         1.1370   -4.1641    0.2739 C.3       1 UNK         0.0000 
     34 C34         1.6258   -5.0121    1.4488 C.3       1 UNK         0.0000 
     35 H35         0.9816   -5.8692    1.6210 H         1 UNK         0.0000 
     36 C36         3.0751   -5.5436    1.2550 C.2       1 UNK         0.0000 
     37 O37         4.0725   -4.8665    1.0354 O.2       1 UNK         0.0000 
     38 N38         3.2815   -6.8446    1.3600 N.am      1 UNK         0.0000 
     39 N39         1.5858   -4.0535    2.5467 N.pl3     1 UNK         0.0000 
     40 C40         0.7316   -3.0000    2.2556 C.2       1 UNK         0.0000 
     41 C41         0.3186   -2.0498    3.3751 C.ar      1 UNK         0.0000 
     42 N42         0.3733   -2.6650    4.6036 N.ar      1 UNK         0.0000 
     43 C43         0.1174   -1.9534    5.7266 C.ar      1 UNK         0.0000 
     44 C44        -0.2511   -0.6174    5.7038 C.ar      1 UNK         0.0000 
     45 C45        -0.3180    0.0253    4.4722 C.ar      1 UNK         0.0000 
     46 C46        -0.0131   -0.6664    3.2973 C.ar      1 UNK         0.0000 
     47 O47        -0.0652    0.0276    2.2438 O.co2     1 UNK         0.0000 
     48 H48        -1.9766   -3.0958    1.5114 H         1 UNK         0.0000 
     49 H49        -1.7690   -4.0889    0.0848 H         1 UNK         0.0000 
     50 H50        -1.3212   -4.7088    1.6702 H         1 UNK         0.0000 
     51 H51         0.7112   -4.7528   -0.5437 H         1 UNK         0.0000 
     52 H52         1.9680   -3.5857   -0.1508 H         1 UNK         0.0000 
     53 H53         2.5234   -7.4580    1.5856 H         1 UNK         0.0000 
     54 H54         4.2529   -7.0843    1.2859 H         1 UNK         0.0000 
     55 H55         0.2483   -2.5000    6.6456 H         1 UNK         0.0000 
     56 H56        -0.4740   -0.0741    6.6022 H         1 UNK         0.0000 
     57 H57        -0.5851    1.0648    4.3905 H         1 UNK         0.0000 
     58 O58        -2.2167   -0.0400   -0.1039 O.co2     1 UNK         0.0000 
     59 C59        -3.3069   -0.0701   -0.9702 C.3       1 UNK         0.0000 
     60 C60        -3.7070   -1.5504   -0.9915 C.3       1 UNK         0.0000 
     61 C61        -4.2806    0.8906   -0.3135 C.3       1 UNK         0.0000 
     62 C62        -5.1030    1.3239   -1.5104 C.3       1 UNK         0.0000 
     63 H63        -5.9179    0.6223   -1.6962 H         1 UNK         0.0000 
     64 C64        -5.7710    2.7201   -1.3699 C.2       1 UNK         0.0000 
     65 O65        -5.1948    3.7868   -1.1863 O.2       1 UNK         0.0000 
     66 N66        -7.0886    2.7771   -1.4756 N.am      1 UNK         0.0000 
     67 N67        -4.2147    1.2806   -2.6525 N.2       1 UNK         0.0000 
     68 C68        -3.1545    0.5768   -2.3867 C.2       1 UNK         0.0000 
     69 C69        -2.1013    0.2859   -3.4511 C.ar      1 UNK         0.0000 
     70 N70        -2.6417    0.3095   -4.7204 N.ar      1 UNK         0.0000 
     71 C71        -1.8800    0.0429   -5.7979 C.ar      1 UNK         0.0000 
     72 C72        -0.5355   -0.2640   -5.7109 C.ar      1 UNK         0.0000 
     73 C73         0.0519   -0.2890   -4.4505 C.ar      1 UNK         0.0000 
     74 C74        -0.7213   -0.0344   -3.3114 C.ar      1 UNK         0.0000 
     75 O75        -0.0672   -0.1291   -2.2432 O.co2     1 UNK         0.0000 
     76 H76        -2.8997   -2.1416   -1.4184 H         1 UNK         0.0000 
     77 H77        -3.9054   -1.9543   -0.0001 H         1 UNK         0.0000 
     78 H78        -4.5914   -1.7036   -1.6079 H         1 UNK         0.0000 
     79 H79        -4.8434    0.4337    0.5029 H         1 UNK         0.0000 
     80 H80        -3.7635    1.7594    0.1193 H         1 UNK         0.0000 
     81 H81        -7.6132    1.9524   -1.7119 H         1 UNK         0.0000 
     82 H82        -7.4410    3.7170   -1.4594 H         1 UNK         0.0000 
     83 H83        -2.4166    0.0917   -6.7288 H         1 UNK         0.0000 
     84 H84         0.0524   -0.4928   -6.5843 H         1 UNK         0.0000 
     85 H85         1.0936   -0.5275   -4.3113 H         1 UNK         0.0000 
     86 H86         3.3492    4.3849    0.9264 H         1 UNK         0.0000 
     87 H87         1.8721    2.1425    1.7254 H         1 UNK         0.0000 
     88 H88         1.3141   -4.4416    3.4409 H         1 UNK         0.0000 
@<TRIPOS>BOND
     1    1    2 nc   
     2    1   19 nc   
     3    1   30 nc   
     4    1   47 nc   
     5    1   58 nc   
     6    1   75 nc   
     7    2    3 1    
     8    3   12 1    
     9    3    5 1    
    10    3    4 1    
    11    4   22 1    
    12    4   20 1    
    13    4   21 1    
    14    5    6 1    
    15    5   24 1    
    16    5   23 1    
    17    6    7 1    
    18    6    8 1    
    19    6   11 1    
    20    8   10 am   BACKBONE|DICT|INTERRES
    21    8    9 2    
    22   10   26 1    
    23   10   25 1    
    24   11   12 1    
    25   11   86 1    
    26   12   13 1    
    27   12   87 1    
    28   13   14 ar   
    29   13   18 ar   
    30   14   15 ar   
    31   15   27 1    
    32   15   16 ar   
    33   16   17 ar   
    34   16   28 1    
    35   17   18 ar   
    36   17   29 1    
    37   18   19 1    
    38   30   31 1    
    39   31   32 1    
    40   31   40 2    
    41   31   33 1    
    42   32   48 1    
    43   32   50 1    
    44   32   49 1    
    45   33   34 1    
    46   33   51 1    
    47   33   52 1    
    48   34   35 1    
    49   34   39 1    
    50   34   36 1    
    51   36   38 am   BACKBONE|DICT|INTERRES
    52   36   37 2    
    53   38   53 1    
    54   38   54 1    
    55   39   40 1    
    56   39   88 1    
    57   40   41 1    
    58   41   42 ar   
    59   41   46 ar   
    60   42   43 ar   
    61   43   55 1    
    62   43   44 ar   
    63   44   56 1    
    64   44   45 ar   
    65   45   46 ar   
    66   45   57 1    
    67   46   47 1    
    68   58   59 1    
    69   59   61 1    
    70   59   60 1    
    71   59   68 1    
    72   60   77 1    
    73   60   76 1    
    74   60   78 1    
    75   61   80 1    
    76   61   79 1    
    77   61   62 1    
    78   62   63 1    
    79   62   64 1    
    80   62   67 1    
    81   64   65 2    
    82   64   66 am   BACKBONE|DICT|INTERRES
    83   66   82 1    
    84   66   81 1    
    85   67   68 2    
    86   68   69 1    
    87   69   74 ar   
    88   69   70 ar   
    89   70   71 ar   
    90   71   72 ar   
    91   71   83 1    
    92   72   73 ar   
    93   72   84 1    
    94   73   85 1    
    95   73   74 ar   
    96   74   75 1    
@<TRIPOS>SUBSTRUCTURE
     1 UNK         1 GROUP             0       ****    0 ROOT    
