@<TRIPOS>MOLECULE
127_c1
91   96    1
SMALL
USER_CHARGES


@<TRIPOS>ATOM
      1 Fe1        -1.5000    4.1218    0.4922 Fe        1 UNK         0.0000 
      2 C2         -3.6118    4.8075   -3.2990 C.3       1 UNK         0.0000 
      3 C3         -2.9578    4.1900   -2.0715 C.2       1 UNK         0.0000 
      4 O4         -2.6507    4.9033   -1.0989 O.co2     1 UNK         0.0000 
      5 N5         -2.7435    2.8554   -1.9520 N.am      1 UNK         0.0000 
      6 O6         -2.4066    2.3625   -0.7711 O.co2     1 UNK         0.0000 
      7 C7         -2.8629    1.8472   -3.0261 C.3       1 UNK         0.0000 
      8 C8         -2.0855    0.5073   -2.8139 C.3       1 UNK         0.0000 
      9 C9         -0.5381    0.6010   -2.7938 C.3       1 UNK         0.0000 
     10 C10         0.1284   -0.5476   -1.9891 C.3       1 UNK         0.0000 
     11 H11        -0.1535   -0.4218   -0.9502 H         1 UNK         0.0000 
     12 C12         1.6809   -0.5777   -2.1077 C.2       1 UNK         0.0000 
     13 O13         2.1892   -1.4204   -2.8475 O.2       1 UNK         0.0000 
     14 N14         2.4964    0.2674   -1.4465 N.am      1 UNK         0.0000 
     15 C15         2.1869    1.4038   -0.5719 C.3       1 UNK         0.0000 
     16 H16         1.5929    2.0681   -1.1974 H         1 UNK         0.0000 
     17 C17         3.4594    2.2138   -0.1855 C.3       1 UNK         0.0000 
     18 C18         3.2819    3.5277    0.6295 C.3       1 UNK         0.0000 
     19 C19         2.7196    4.7592   -0.1392 C.3       1 UNK         0.0000 
     20 N20         1.2960    5.0651    0.1278 N.am      1 UNK         0.0000 
     21 O21         0.4367    4.1312   -0.2859 O.co2     1 UNK         0.0000 
     22 C22         0.8390    6.1497    0.8136 C.2       1 UNK         0.0000 
     23 O23        -0.3746    6.1754    1.0101 O.co2     1 UNK         0.0000 
     24 C24         1.7164    7.2721    1.3869 C.3       1 UNK         0.0000 
     25 C25         1.3175    1.0119    0.6404 C.2       1 UNK         0.0000 
     26 O26         0.1651    1.3861    0.6115 O.2       1 UNK         0.0000 
     27 N27         1.8593    0.2688    1.6300 N.am      1 UNK         0.0000 
     28 C28         1.2031   -0.1682    2.8895 C.3       1 UNK         0.0000 
     29 H29         2.0071   -0.0921    3.6212 H         1 UNK         0.0000 
     30 C30         0.0617    0.7274    3.4818 C.3       1 UNK         0.0000 
     31 C31         0.4185    2.2001    3.8747 C.3       1 UNK         0.0000 
     32 C32        -0.8091    3.1079    4.2634 C.3       1 UNK         0.0000 
     33 N33        -1.6006    3.6501    3.1319 N.am      1 UNK         0.0000 
     34 O34        -1.5554    2.8964    2.0670 O.co2     1 UNK         0.0000 
     35 C35        -2.2389    4.8358    3.0328 C.2       1 UNK         0.0000 
     36 O36        -2.5673    5.1487    1.8663 O.co2     1 UNK         0.0000 
     37 C37        -2.4720    5.7695    4.2093 C.3       1 UNK         0.0000 
     38 C38         0.8575   -1.6836    2.9687 C.2       1 UNK         0.0000 
     39 O39        -0.0356   -2.0515    3.7251 O.2       1 UNK         0.0000 
     40 N40         1.6574   -2.5569    2.3316 N.am      1 UNK         0.0000 
     41 C41         1.6710   -3.9968    2.6388 C.3       1 UNK         0.0000 
     42 C42         0.5430   -4.8008    1.9663 C.2       1 UNK         0.0000 
     43 O43        -0.6180   -4.6871    2.3384 O.2       1 UNK         0.0000 
     44 N44         0.9073   -5.7228    1.0569 N.am      1 UNK         0.0000 
     45 C45        -0.0437   -6.6883    0.4849 C.3       1 UNK         0.0000 
     46 C46        -0.9459   -6.0639   -0.5899 C.2       1 UNK         0.0000 
     47 O47        -2.0726   -6.5132   -0.7833 O.2       1 UNK         0.0000 
     48 N48        -0.4240   -5.0614   -1.3020 N.am      1 UNK         0.0000 
     49 C49        -1.1871   -4.1476   -2.1351 C.3       1 UNK         0.0000 
     50 C50        -0.8262   -2.7810   -1.5620 C.2       1 UNK         0.0000 
     51 O51        -0.8899   -2.5909   -0.3507 O.2       1 UNK         0.0000 
     52 N52        -0.3807   -1.8549   -2.4170 N.am      1 UNK         0.0000 
     53 H53        -4.5756    5.2076   -2.9838 H         1 UNK         0.0000 
     54 H54        -3.0043    5.6258   -3.6815 H         1 UNK         0.0000 
     55 H55        -3.7989    4.0987   -4.1024 H         1 UNK         0.0000 
     56 H56        -2.5622    2.2832   -3.9835 H         1 UNK         0.0000 
     57 H57        -3.9260    1.6122   -3.1118 H         1 UNK         0.0000 
     58 H58        -2.4299    0.0683   -1.8770 H         1 UNK         0.0000 
     59 H59        -2.3804   -0.2086   -3.5759 H         1 UNK         0.0000 
     60 H60        -0.2511    1.5528   -2.3464 H         1 UNK         0.0000 
     61 H61        -0.1640    0.6125   -3.8164 H         1 UNK         0.0000 
     62 H62         3.4734    0.1567   -1.6597 H         1 UNK         0.0000 
     63 H63         4.0076    2.4598   -1.0971 H         1 UNK         0.0000 
     64 H64         4.1271    1.5579    0.3750 H         1 UNK         0.0000 
     65 H65         4.2656    3.7949    1.0201 H         1 UNK         0.0000 
     66 H66         2.6698    3.3461    1.5108 H         1 UNK         0.0000 
     67 H67         3.3879    5.5983    0.0772 H         1 UNK         0.0000 
     68 H68         2.8547    4.6399   -1.2138 H         1 UNK         0.0000 
     69 H69         1.4958    7.4104    2.4456 H         1 UNK         0.0000 
     70 H70         1.4758    8.2072    0.8875 H         1 UNK         0.0000 
     71 H71         2.7905    7.1410    1.3145 H         1 UNK         0.0000 
     72 H72         2.8175   -0.0083    1.5284 H         1 UNK         0.0000 
     73 H73        -0.7763    0.6678    2.7894 H         1 UNK         0.0000 
     74 H74        -0.3365    0.2644    4.3847 H         1 UNK         0.0000 
     75 H75         1.0980    2.1497    4.7269 H         1 UNK         0.0000 
     76 H76         0.9723    2.6831    3.0714 H         1 UNK         0.0000 
     77 H77        -1.4991    2.5039    4.8494 H         1 UNK         0.0000 
     78 H78        -0.4797    3.8967    4.9436 H         1 UNK         0.0000 
     79 H79        -1.8707    6.6704    4.0924 H         1 UNK         0.0000 
     80 H80        -2.2448    5.3053    5.1642 H         1 UNK         0.0000 
     81 H81        -3.5220    6.0499    4.2250 H         1 UNK         0.0000 
     82 H82         2.3705   -2.2095    1.7178 H         1 UNK         0.0000 
     83 H83         2.6429   -4.4149    2.3823 H         1 UNK         0.0000 
     84 H84         1.5626   -4.1346    3.7178 H         1 UNK         0.0000 
     85 H85         1.8703   -5.7937    0.7793 H         1 UNK         0.0000 
     86 H86        -0.6584   -7.1313    1.2700 H         1 UNK         0.0000 
     87 H87         0.5116   -7.5021    0.0210 H         1 UNK         0.0000 
     88 H88         0.4847   -4.7262   -1.0306 H         1 UNK         0.0000 
     89 H89        -0.8907   -4.2407   -3.1791 H         1 UNK         0.0000 
     90 H90        -2.2662   -4.3020   -2.0622 H         1 UNK         0.0000 
     91 H91        -0.1755   -2.1079   -3.3696 H         1 UNK         0.0000 
@<TRIPOS>BOND
     1    1    4 nc   
     2    1    6 nc   
     3    1   21 nc   
     4    1   23 nc   
     5    1   34 nc   
     6    1   36 nc   
     7    2   53 1    
     8    2    3 1    
     9    2   54 1    
    10    2   55 1    
    11    3    5 am   BACKBONE|DICT|INTERRES
    12    3    4 2    
    13    5    6 1    
    14    5    7 1    
    15    7    8 1    
    16    7   56 1    
    17    7   57 1    
    18    8    9 1    
    19    8   58 1    
    20    8   59 1    
    21    9   60 1    
    22    9   10 1    
    23    9   61 1    
    24   10   11 1    
    25   10   12 1    
    26   10   52 1    
    27   12   14 am   BACKBONE|DICT|INTERRES
    28   12   13 2    
    29   14   15 1    
    30   14   62 1    
    31   15   16 1    
    32   15   17 1    
    33   15   25 1    
    34   17   64 1    
    35   17   18 1    
    36   17   63 1    
    37   18   65 1    
    38   18   66 1    
    39   18   19 1    
    40   19   20 1    
    41   19   67 1    
    42   19   68 1    
    43   20   22 am   BACKBONE|DICT|INTERRES
    44   20   21 1    
    45   22   24 1    
    46   22   23 2    
    47   24   69 1    
    48   24   70 1    
    49   24   71 1    
    50   25   26 2    
    51   25   27 am   BACKBONE|DICT|INTERRES
    52   27   28 1    
    53   27   72 1    
    54   28   38 1    
    55   28   30 1    
    56   28   29 1    
    57   30   31 1    
    58   30   74 1    
    59   30   73 1    
    60   31   32 1    
    61   31   75 1    
    62   31   76 1    
    63   32   78 1    
    64   32   77 1    
    65   32   33 1    
    66   33   34 1    
    67   33   35 am   BACKBONE|DICT|INTERRES
    68   35   37 1    
    69   35   36 2    
    70   37   81 1    
    71   37   80 1    
    72   37   79 1    
    73   38   39 2    
    74   38   40 am   BACKBONE|DICT|INTERRES
    75   40   41 1    
    76   40   82 1    
    77   41   84 1    
    78   41   42 1    
    79   41   83 1    
    80   42   43 2    
    81   42   44 am   BACKBONE|DICT|INTERRES
    82   44   45 1    
    83   44   85 1    
    84   45   86 1    
    85   45   46 1    
    86   45   87 1    
    87   46   47 2    
    88   46   48 am   BACKBONE|DICT|INTERRES
    89   48   49 1    
    90   48   88 1    
    91   49   90 1    
    92   49   50 1    
    93   49   89 1    
    94   50   51 2    
    95   50   52 am   BACKBONE|DICT|INTERRES
    96   52   91 1    
@<TRIPOS>SUBSTRUCTURE
     1 UNK         1 GROUP             0       ****    0 ROOT    
