@<TRIPOS>MOLECULE
105_c4
112   117    1
SMALL
USER_CHARGES


@<TRIPOS>ATOM
      1 Fe1         0.0310    1.8670   -1.4207 Fe        1 UNK         0.0000 
      2 O2          0.0267   -4.5805   -5.2439 O.2       1 UNK         0.0000 
      3 C3         -0.9438   -5.1258   -4.7262 C.2       1 UNK         0.0000 
      4 C4         -0.9492   -6.6473   -4.5456 C.3       1 UNK         0.0000 
      5 C5          0.2602   -7.2335   -3.7648 C.3       1 UNK         0.0000 
      6 C6          0.1224   -7.2969   -2.2262 C.2       1 UNK         0.0000 
      7 O7         -0.8169   -6.7117   -1.6804 O.2       1 UNK         0.0000 
      8 N8          0.9970   -8.0674   -1.5224 N.am      1 UNK         0.0000 
      9 O9          2.1363   -8.5563   -2.2011 O.3       1 UNK         0.0000 
     10 C10         0.8968   -8.4648   -0.1112 C.3       1 UNK         0.0000 
     11 C11         2.0484   -7.9761    0.7942 C.3       1 UNK         0.0000 
     12 C12         1.8847   -6.5350    1.3107 C.3       1 UNK         0.0000 
     13 C13         3.0643   -6.1008    2.2133 C.3       1 UNK         0.0000 
     14 C14         2.7652   -4.9293    3.1653 C.3       1 UNK         0.0000 
     15 N15         2.2537   -3.7671    2.4527 N.am      1 UNK         0.0000 
     16 C16         2.6854   -2.5073    2.5719 C.2       1 UNK         0.0000 
     17 O17         3.6122   -2.1671    3.3005 O.2       1 UNK         0.0000 
     18 C18         1.9222   -1.5151    1.7067 C.3       1 UNK         0.0000 
     19 C19         2.1664   -0.0194    2.0171 C.3       1 UNK         0.0000 
     20 C20         1.2641    0.7524    1.0540 C.2       1 UNK         0.0000 
     21 O21         1.5600    0.7404   -0.1455 O.co2     1 UNK         0.0000 
     22 N22         0.0679    1.2990    1.4019 N.am      1 UNK         0.0000 
     23 O23        -0.8501    1.5957    0.4814 O.co2     1 UNK         0.0000 
     24 C24        -0.3103    1.7354    2.7560 C.3       1 UNK         0.0000 
     25 C25        -0.9077    3.1657    2.7900 C.3       1 UNK         0.0000 
     26 C26        -1.1160    3.7420    4.1928 C.3       1 UNK         0.0000 
     27 C27        -1.9684    5.0330    4.2262 C.3       1 UNK         0.0000 
     28 C28        -1.5115    6.1775    3.2898 C.3       1 UNK         0.0000 
     29 N29        -2.1064    6.0974    1.9477 N.am      1 UNK         0.0000 
     30 C30        -1.4715    6.3500    0.7924 C.2       1 UNK         0.0000 
     31 O31        -0.2903    6.6783    0.7457 O.2       1 UNK         0.0000 
     32 C32        -2.3014    6.2227   -0.4990 C.3       1 UNK         0.0000 
     33 C33        -1.4948    6.0561   -1.8241 C.3       1 UNK         0.0000 
     34 C34        -0.7436    4.7149   -1.8827 C.2       1 UNK         0.0000 
     35 O35        -1.3651    3.6482   -1.7534 O.co2     1 UNK         0.0000 
     36 N36         0.6104    4.6513   -1.9481 N.am      1 UNK         0.0000 
     37 O37         1.2482    3.5454   -1.5884 O.co2     1 UNK         0.0000 
     38 C38         1.4698    5.6898   -2.5798 C.3       1 UNK         0.0000 
     39 C39         2.8819    5.2022   -3.0379 C.3       1 UNK         0.0000 
     40 C40         3.7626    6.1804   -3.8379 C.3       1 UNK         0.0000 
     41 C41         3.2600    6.5868   -5.2409 C.3       1 UNK         0.0000 
     42 C42         3.2210    5.4653   -6.3064 C.3       1 UNK         0.0000 
     43 N43         2.1251    4.5105   -6.1040 N.am      1 UNK         0.0000 
     44 C44         2.2125    3.1687   -6.1142 C.2       1 UNK         0.0000 
     45 O45         3.2648    2.5723   -6.3165 O.2       1 UNK         0.0000 
     46 C46         0.8984    2.3995   -5.8823 C.3       1 UNK         0.0000 
     47 C47         0.9958    0.9226   -5.3555 C.3       1 UNK         0.0000 
     48 C48         0.4356    0.8057   -3.9356 C.2       1 UNK         0.0000 
     49 O49         1.0278    1.3089   -2.9862 O.co2     1 UNK         0.0000 
     50 N50        -0.8051    0.3604   -3.6287 N.am      1 UNK         0.0000 
     51 O51        -1.3300    0.6104   -2.4264 O.co2     1 UNK         0.0000 
     52 C52        -1.5754   -0.5920   -4.4427 C.3       1 UNK         0.0000 
     53 C53        -1.4276   -2.0403   -3.9141 C.3       1 UNK         0.0000 
     54 C54        -2.3105   -3.0442   -4.6776 C.3       1 UNK         0.0000 
     55 N55        -2.0568   -4.4593   -4.3853 N.am      1 UNK         0.0000 
     56 H56        -1.9036   -7.0427   -4.1952 H         1 UNK         0.0000 
     57 H57        -0.8658   -7.0063   -5.5724 H         1 UNK         0.0000 
     58 H58         1.2008   -6.7688   -4.0643 H         1 UNK         0.0000 
     59 H59         0.3283   -8.2780   -4.0695 H         1 UNK         0.0000 
     60 H60         2.0152   -9.5097   -2.2078 H         1 UNK         0.0000 
     61 H61        -0.0591   -8.1488    0.3139 H         1 UNK         0.0000 
     62 H62         0.8666   -9.5546   -0.0801 H         1 UNK         0.0000 
     63 H63         3.0089   -8.0955    0.2896 H         1 UNK         0.0000 
     64 H64         2.0852   -8.6278    1.6688 H         1 UNK         0.0000 
     65 H65         0.9477   -6.4685    1.8677 H         1 UNK         0.0000 
     66 H66         1.7895   -5.8471    0.4679 H         1 UNK         0.0000 
     67 H67         3.9247   -5.8536    1.5891 H         1 UNK         0.0000 
     68 H68         3.3859   -6.9392    2.8318 H         1 UNK         0.0000 
     69 H69         1.9806   -5.2191    3.8669 H         1 UNK         0.0000 
     70 H70         3.6491   -4.6949    3.7650 H         1 UNK         0.0000 
     71 H71         1.4669   -3.9258    1.8448 H         1 UNK         0.0000 
     72 H72         0.8617   -1.7482    1.8324 H         1 UNK         0.0000 
     73 H73         2.2301   -1.7427    0.6844 H         1 UNK         0.0000 
     74 H74         3.1926    0.2625    1.7793 H         1 UNK         0.0000 
     75 H75         1.9541    0.2201    3.0528 H         1 UNK         0.0000 
     76 H76        -1.0389    1.0257    3.1498 H         1 UNK         0.0000 
     77 H77         0.5270    1.6928    3.4558 H         1 UNK         0.0000 
     78 H78        -0.2613    3.8308    2.2162 H         1 UNK         0.0000 
     79 H79        -1.8701    3.1534    2.2793 H         1 UNK         0.0000 
     80 H80        -1.5999    2.9926    4.8218 H         1 UNK         0.0000 
     81 H81        -0.1398    3.9367    4.6389 H         1 UNK         0.0000 
     82 H82        -1.9578    5.4026    5.2535 H         1 UNK         0.0000 
     83 H83        -3.0144    4.7906    4.0270 H         1 UNK         0.0000 
     84 H84        -1.7823    7.1388    3.7308 H         1 UNK         0.0000 
     85 H85        -0.4184    6.1940    3.2493 H         1 UNK         0.0000 
     86 H86        -3.0917    5.8971    1.9053 H         1 UNK         0.0000 
     87 H87        -2.8701    7.1462   -0.5701 H         1 UNK         0.0000 
     88 H88        -3.0673    5.4548   -0.4130 H         1 UNK         0.0000 
     89 H89        -0.8765    6.9336   -2.0204 H         1 UNK         0.0000 
     90 H90        -2.2073    6.0523   -2.6474 H         1 UNK         0.0000 
     91 H91         0.9526    6.1234   -3.4402 H         1 UNK         0.0000 
     92 H92         1.5892    6.5271   -1.8904 H         1 UNK         0.0000 
     93 H93         3.4402    4.9433   -2.1391 H         1 UNK         0.0000 
     94 H94         2.7909    4.2693   -3.5882 H         1 UNK         0.0000 
     95 H95         4.7498    5.7270   -3.9532 H         1 UNK         0.0000 
     96 H96         3.9288    7.0761   -3.2390 H         1 UNK         0.0000 
     97 H97         3.9350    7.3619   -5.6104 H         1 UNK         0.0000 
     98 H98         2.2872    7.0711   -5.1658 H         1 UNK         0.0000 
     99 H99         3.1249    5.9075   -7.3009 H         1 UNK         0.0000 
    100 H100        4.1883    4.9536   -6.3138 H         1 UNK         0.0000 
    101 H101        1.2148    4.9110   -5.9581 H         1 UNK         0.0000 
    102 H102        0.2717    2.4398   -6.7727 H         1 UNK         0.0000 
    103 H103        0.3397    3.0100   -5.1681 H         1 UNK         0.0000 
    104 H104        2.0391    0.6190   -5.2673 H         1 UNK         0.0000 
    105 H105        0.6151    0.2059   -6.0813 H         1 UNK         0.0000 
    106 H106       -2.6310   -0.3065   -4.4090 H         1 UNK         0.0000 
    107 H107       -1.3278   -0.5639   -5.5060 H         1 UNK         0.0000 
    108 H108       -0.3811   -2.3340   -3.9958 H         1 UNK         0.0000 
    109 H109       -1.6792   -2.0864   -2.8536 H         1 UNK         0.0000 
    110 H110       -2.1799   -2.8802   -5.7491 H         1 UNK         0.0000 
    111 H111       -3.3616   -2.8174   -4.4916 H         1 UNK         0.0000 
    112 H112       -2.7760   -4.9688   -3.8968 H         1 UNK         0.0000 
@<TRIPOS>BOND
     1    1   21 nc   
     2    1   23 nc   
     3    1   35 nc   
     4    1   37 nc   
     5    1   49 nc   
     6    1   51 nc   
     7    2    3 2    
     8    3    4 1    
     9    3   55 am   BACKBONE|DICT|INTERRES
    10    4   56 1    
    11    4    5 1    
    12    4   57 1    
    13    5    6 1    
    14    5   58 1    
    15    5   59 1    
    16    6    7 2    
    17    6    8 am   BACKBONE|DICT|INTERRES
    18    8   10 1    
    19    8    9 1    
    20    9   60 1    
    21   10   62 1    
    22   10   61 1    
    23   10   11 1    
    24   11   12 1    
    25   11   64 1    
    26   11   63 1    
    27   12   65 1    
    28   12   13 1    
    29   12   66 1    
    30   13   68 1    
    31   13   14 1    
    32   13   67 1    
    33   14   70 1    
    34   14   69 1    
    35   14   15 1    
    36   15   16 am   BACKBONE|DICT|INTERRES
    37   15   71 1    
    38   16   17 2    
    39   16   18 1    
    40   18   72 1    
    41   18   19 1    
    42   18   73 1    
    43   19   75 1    
    44   19   20 1    
    45   19   74 1    
    46   20   21 2    
    47   20   22 am   BACKBONE|DICT|INTERRES
    48   22   24 1    
    49   22   23 1    
    50   24   76 1    
    51   24   77 1    
    52   24   25 1    
    53   25   26 1    
    54   25   78 1    
    55   25   79 1    
    56   26   27 1    
    57   26   81 1    
    58   26   80 1    
    59   27   82 1    
    60   27   28 1    
    61   27   83 1    
    62   28   84 1    
    63   28   29 1    
    64   28   85 1    
    65   29   30 am   BACKBONE|DICT|INTERRES
    66   29   86 1    
    67   30   31 2    
    68   30   32 1    
    69   32   88 1    
    70   32   33 1    
    71   32   87 1    
    72   33   34 1    
    73   33   89 1    
    74   33   90 1    
    75   34   35 2    
    76   34   36 am   BACKBONE|DICT|INTERRES
    77   36   37 1    
    78   36   38 1    
    79   38   92 1    
    80   38   39 1    
    81   38   91 1    
    82   39   93 1    
    83   39   40 1    
    84   39   94 1    
    85   40   96 1    
    86   40   41 1    
    87   40   95 1    
    88   41   98 1    
    89   41   42 1    
    90   41   97 1    
    91   42   43 1    
    92   42   99 1    
    93   42  100 1    
    94   43   44 am   BACKBONE|DICT|INTERRES
    95   43  101 1    
    96   44   46 1    
    97   44   45 2    
    98   46   47 1    
    99   46  103 1    
   100   46  102 1    
   101   47  104 1    
   102   47   48 1    
   103   47  105 1    
   104   48   50 am   BACKBONE|DICT|INTERRES
   105   48   49 2    
   106   50   51 1    
   107   50   52 1    
   108   52  106 1    
   109   52   53 1    
   110   52  107 1    
   111   53  109 1    
   112   53   54 1    
   113   53  108 1    
   114   54  111 1    
   115   54   55 1    
   116   54  110 1    
   117   55  112 1    
@<TRIPOS>SUBSTRUCTURE
     1 UNK         1 GROUP             0       ****    0 ROOT    
