@<TRIPOS>MOLECULE
159_c1
177   182    1
SMALL
USER_CHARGES


@<TRIPOS>ATOM
      1 Fe1         3.5363   -3.4302    5.5131 Fe        1 UNK         0.0000 
      2 C2          8.1534   -4.6031    6.9294 C.3       1 UNK         0.0000 
      3 C3          7.7209   -5.0601    5.5121 C.3       1 UNK         0.0000 
      4 C4          6.3897   -4.4081    5.0768 C.2       1 UNK         0.0000 
      5 O5          5.3693   -4.5521    5.7643 O.co2     1 UNK         0.0000 
      6 N6          6.2422   -3.5838    4.0113 N.am      1 UNK         0.0000 
      7 O7          5.1079   -2.9096    3.8705 O.co2     1 UNK         0.0000 
      8 C8          7.2199   -3.3385    2.9421 C.3       1 UNK         0.0000 
      9 C9          6.6361   -3.3920    1.4981 C.3       1 UNK         0.0000 
     10 C10         7.6381   -3.1257    0.3587 C.3       1 UNK         0.0000 
     11 C11         7.9053   -1.6523   -0.0756 C.3       1 UNK         0.0000 
     12 H12         8.7126   -1.7548   -0.8083 H         1 UNK         0.0000 
     13 N13         6.8374   -0.9560   -0.8337 N.am      1 UNK         0.0000 
     14 C14         6.4016   -1.3405   -2.0536 C.2       1 UNK         0.0000 
     15 O15         6.5946   -2.4668   -2.4867 O.2       1 UNK         0.0000 
     16 C16         5.7761   -0.2303   -2.9439 C.3       1 UNK         0.0000 
     17 H17         5.7778    0.6646   -2.3182 H         1 UNK         0.0000 
     18 C18         6.6169    0.1798   -4.2008 C.3       1 UNK         0.0000 
     19 O19         6.9879   -0.8588   -5.0919 O.3       1 UNK         0.0000 
     20 N20         4.3436   -0.3611   -3.2430 N.am      1 UNK         0.0000 
     21 C21         3.7333   -1.1661   -4.1288 C.2       1 UNK         0.0000 
     22 O22         4.2901   -2.0467   -4.7698 O.2       1 UNK         0.0000 
     23 C23         2.2432   -0.8085   -4.3877 C.3       1 UNK         0.0000 
     24 H24         2.2874    0.2539   -4.6508 H         1 UNK         0.0000 
     25 C25         1.6753   -1.5227   -5.6577 C.3       1 UNK         0.0000 
     26 C26         0.4255   -0.7906   -6.1756 C.3       1 UNK         0.0000 
     27 C27         1.4133   -3.0389   -5.5359 C.3       1 UNK         0.0000 
     28 N28         1.3335   -0.8437   -3.2209 N.am      1 UNK         0.0000 
     29 C29         1.1298   -1.8512   -2.3534 C.2       1 UNK         0.0000 
     30 O30         1.7990   -2.8795   -2.3486 O.2       1 UNK         0.0000 
     31 C31         0.0072   -1.6594   -1.3166 C.3       1 UNK         0.0000 
     32 N32        -0.4344   -2.9848   -0.8929 N.am      1 UNK         0.0000 
     33 C33        -1.4300   -3.3133   -0.0556 C.2       1 UNK         0.0000 
     34 O34        -1.8023   -4.4769    0.0571 O.2       1 UNK         0.0000 
     35 C35        -2.1638   -2.2388    0.7836 C.3       1 UNK         0.0000 
     36 H36        -1.6693   -1.2859    0.6256 H         1 UNK         0.0000 
     37 C37        -2.1468   -2.5801    2.2947 C.3       1 UNK         0.0000 
     38 C38        -0.7157   -2.7512    2.8716 C.3       1 UNK         0.0000 
     39 C39        -0.6736   -3.5349    4.2089 C.3       1 UNK         0.0000 
     40 N40         0.6787   -3.9317    4.6555 N.am      1 UNK         0.0000 
     41 O41         1.7159   -3.2554    4.1514 O.co2     1 UNK         0.0000 
     42 C42         0.9242   -4.8355    5.6190 C.2       1 UNK         0.0000 
     43 O43         2.1172   -4.9583    5.8844 O.co2     1 UNK         0.0000 
     44 C44        -0.1599   -5.5315    6.4660 C.3       1 UNK         0.0000 
     45 C45        -0.0654   -5.1169    7.9609 C.3       1 UNK         0.0000 
     46 N46        -3.5027   -2.1956    0.2051 N.am      1 UNK         0.0000 
     47 C47        -4.4665   -1.2663    0.1750 C.2       1 UNK         0.0000 
     48 O48        -5.3848   -1.4117   -0.6349 O.2       1 UNK         0.0000 
     49 C49        -4.4720   -0.0218    1.1117 C.3       1 UNK         0.0000 
     50 H50        -4.5207   -0.3594    2.1475 H         1 UNK         0.0000 
     51 N51        -5.6939    0.7066    0.7557 N.am      1 UNK         0.0000 
     52 C52        -6.7278    1.0594    1.5263 C.2       1 UNK         0.0000 
     53 O53        -6.7448    0.8766    2.7414 O.2       1 UNK         0.0000 
     54 C54        -7.9055    1.6749    0.7459 C.3       1 UNK         0.0000 
     55 C55        -9.0905    2.1756    1.5671 C.2       1 UNK         0.0000 
     56 C56       -10.0100    3.0340    1.0799 C.2       1 UNK         0.0000 
     57 C57       -11.1969    3.6024    1.8402 C.3       1 UNK         0.0000 
     58 C58       -12.5428    3.5123    1.0830 C.3       1 UNK         0.0000 
     59 C59       -13.6541    4.3219    1.7852 C.3       1 UNK         0.0000 
     60 C60       -14.9749    4.4489    0.9977 C.3       1 UNK         0.0000 
     61 C61       -15.7787    3.1395    0.8731 C.3       1 UNK         0.0000 
     62 C62       -17.1388    3.3458    0.1804 C.3       1 UNK         0.0000 
     63 C63        -3.2500    0.9141    0.8811 C.3       1 UNK         0.0000 
     64 O64        -2.1806    0.8265    1.8393 O.3       1 UNK         0.0000 
     65 C65        -1.9893    1.7984    2.7697 C.2       1 UNK         0.0000 
     66 O66        -2.7923    2.7050    2.9968 O.2       1 UNK         0.0000 
     67 C67        -0.6167    1.6995    3.4984 C.3       1 UNK         0.0000 
     68 N68        -0.4351    2.8533    4.4054 N.am      1 UNK         0.0000 
     69 C69         0.6433    3.2706    5.0866 C.2       1 UNK         0.0000 
     70 O70         0.5904    4.2965    5.7610 O.2       1 UNK         0.0000 
     71 C71         1.9585    2.4641    5.0762 C.3       1 UNK         0.0000 
     72 H72         2.0023    1.8534    4.1786 H         1 UNK         0.0000 
     73 C73         2.0087    1.5234    6.3133 C.3       1 UNK         0.0000 
     74 C74         3.4486    1.1955    6.7936 C.3       1 UNK         0.0000 
     75 C75         3.5565    0.0335    7.8216 C.3       1 UNK         0.0000 
     76 N76         3.4077   -1.3333    7.3100 N.am      1 UNK         0.0000 
     77 O77         3.4138   -1.5161    5.9876 O.co2     1 UNK         0.0000 
     78 C78         3.4892   -2.4886    8.0158 C.2       1 UNK         0.0000 
     79 O79         3.5770   -3.4233    7.1942 O.co2     1 UNK         0.0000 
     80 C80         3.4663   -2.6516    9.5428 C.3       1 UNK         0.0000 
     81 C81         3.8691   -4.0906    9.9831 C.3       1 UNK         0.0000 
     82 N82         3.0586    3.4388    5.1355 N.am      1 UNK         0.0000 
     83 C83         4.1362    3.5900    4.3519 C.2       1 UNK         0.0000 
     84 O84         5.1025    4.2410    4.7448 O.2       1 UNK         0.0000 
     85 C85         4.1950    2.9861    2.9425 C.3       1 UNK         0.0000 
     86 N86         5.5386    2.4595    2.7593 N.am      1 UNK         0.0000 
     87 C87         5.9644    1.9668    1.5873 C.2       1 UNK         0.0000 
     88 O88         5.2391    1.8227    0.6016 O.2       1 UNK         0.0000 
     89 C89         7.4346    1.5221    1.4452 C.3       1 UNK         0.0000 
     90 H90         7.6556    1.5579    0.3747 H         1 UNK         0.0000 
     91 C91         8.4939    2.3465    2.2156 C.3       1 UNK         0.0000 
     92 N92         7.4603    0.0544    1.8247 N.4       1 UNK         0.0000 
     93 H93         6.5386   -0.3527    1.6714 H         1 UNK         0.0000 
     94 H94         7.6376   -0.0048    2.8184 H         1 UNK         0.0000 
     95 C95         8.5241   -0.7627    1.0376 C.3       1 UNK         0.0000 
     96 H96         9.0573   -5.1126    7.2690 H         1 UNK         0.0000 
     97 H97         8.3908   -3.5355    6.9703 H         1 UNK         0.0000 
     98 H98         7.3926   -4.8131    7.6829 H         1 UNK         0.0000 
     99 H99         8.5383   -4.8666    4.8223 H         1 UNK         0.0000 
    100 H100        7.6045   -6.1398    5.4993 H         1 UNK         0.0000 
    101 H101        8.0656   -4.0226    2.9854 H         1 UNK         0.0000 
    102 H102        7.6470   -2.3662    3.1696 H         1 UNK         0.0000 
    103 H103        6.2390   -4.3996    1.3438 H         1 UNK         0.0000 
    104 H104        5.7776   -2.7310    1.3805 H         1 UNK         0.0000 
    105 H105        8.5910   -3.6053    0.5901 H         1 UNK         0.0000 
    106 H106        7.2910   -3.6970   -0.5049 H         1 UNK         0.0000 
    107 H107        6.5810   -0.0145   -0.5871 H         1 UNK         0.0000 
    108 H108        6.1276    0.9882   -4.7490 H         1 UNK         0.0000 
    109 H109        7.5617    0.6039   -3.8494 H         1 UNK         0.0000 
    110 H110        7.0750   -0.5283   -5.9916 H         1 UNK         0.0000 
    111 H111        3.7534    0.3178   -2.7989 H         1 UNK         0.0000 
    112 H112        2.4330   -1.4164   -6.4422 H         1 UNK         0.0000 
    113 H113       -0.3876   -0.8575   -5.4576 H         1 UNK         0.0000 
    114 H114        0.0843   -1.2303   -7.1126 H         1 UNK         0.0000 
    115 H115        0.6263    0.2657   -6.3662 H         1 UNK         0.0000 
    116 H116        2.2852   -3.5875   -5.1708 H         1 UNK         0.0000 
    117 H117        1.1607   -3.4640   -6.5092 H         1 UNK         0.0000 
    118 H118        0.5889   -3.2586   -4.8626 H         1 UNK         0.0000 
    119 H119        0.7186   -0.0484   -3.1670 H         1 UNK         0.0000 
    120 H120       -0.8295   -1.1105   -1.7554 H         1 UNK         0.0000 
    121 H121        0.3946   -1.0966   -0.4686 H         1 UNK         0.0000 
    122 H122        0.0893   -3.7359   -1.3260 H         1 UNK         0.0000 
    123 H123       -2.7045   -3.5045    2.4566 H         1 UNK         0.0000 
    124 H124       -2.6675   -1.8073    2.8633 H         1 UNK         0.0000 
    125 H125       -0.0765   -3.3038    2.1796 H         1 UNK         0.0000 
    126 H126       -0.2505   -1.7727    3.0252 H         1 UNK         0.0000 
    127 H127       -1.2501   -4.4550    4.0870 H         1 UNK         0.0000 
    128 H128       -1.1721   -2.9757    5.0039 H         1 UNK         0.0000 
    129 H129       -0.0081   -6.6031    6.3700 H         1 UNK         0.0000 
    130 H130       -1.1609   -5.3403    6.0877 H         1 UNK         0.0000 
    131 H131       -0.2678   -4.0554    8.1183 H         1 UNK         0.0000 
    132 H132        0.9086   -5.3456    8.4014 H         1 UNK         0.0000 
    133 H133       -0.8020   -5.6450    8.5740 H         1 UNK         0.0000 
    134 H134       -3.6733   -3.0101   -0.3675 H         1 UNK         0.0000 
    135 H135       -5.8558    0.7090   -0.2395 H         1 UNK         0.0000 
    136 H136       -8.2824    0.9301    0.0440 H         1 UNK         0.0000 
    137 H137       -7.5293    2.5120    0.1524 H         1 UNK         0.0000 
    138 H138       -9.1669    1.8088    2.5829 H         1 UNK         0.0000 
    139 H139       -9.9233    3.3678    0.0558 H         1 UNK         0.0000 
    140 H140      -11.2753    3.1105    2.8120 H         1 UNK         0.0000 
    141 H141      -10.9579    4.6498    2.0182 H         1 UNK         0.0000 
    142 H142      -12.4231    3.8808    0.0600 H         1 UNK         0.0000 
    143 H143      -12.8383    2.4657    0.9834 H         1 UNK         0.0000 
    144 H144      -13.2828    5.3308    1.9767 H         1 UNK         0.0000 
    145 H145      -13.8530    3.8981    2.7694 H         1 UNK         0.0000 
    146 H146      -14.7744    4.8571    0.0063 H         1 UNK         0.0000 
    147 H147      -15.5977    5.1956    1.4959 H         1 UNK         0.0000 
    148 H148      -15.1982    2.3957    0.3215 H         1 UNK         0.0000 
    149 H149      -15.9427    2.7111    1.8659 H         1 UNK         0.0000 
    150 H150      -17.0182    3.7319   -0.8324 H         1 UNK         0.0000 
    151 H151      -17.6950    2.4086    0.1083 H         1 UNK         0.0000 
    152 H152      -17.7622    4.0514    0.7303 H         1 UNK         0.0000 
    153 H153       -3.5861    1.9484    0.8077 H         1 UNK         0.0000 
    154 H154       -2.8267    0.7266   -0.1019 H         1 UNK         0.0000 
    155 H155        0.1526    1.6966    2.7232 H         1 UNK         0.0000 
    156 H156       -0.5668    0.7570    4.0491 H         1 UNK         0.0000 
    157 H157       -1.2539    3.4388    4.4965 H         1 UNK         0.0000 
    158 H158        1.4928    0.5925    6.0635 H         1 UNK         0.0000 
    159 H159        1.4419    1.9611    7.1429 H         1 UNK         0.0000 
    160 H160        3.8878    2.0784    7.2767 H         1 UNK         0.0000 
    161 H161        4.0885    0.9781    5.9402 H         1 UNK         0.0000 
    162 H162        4.5319    0.0805    8.3087 H         1 UNK         0.0000 
    163 H163        2.8309    0.1617    8.6206 H         1 UNK         0.0000 
    164 H164        4.1209   -1.9112   10.0063 H         1 UNK         0.0000 
    165 H165        2.4494   -2.4273    9.8816 H         1 UNK         0.0000 
    166 H166        4.8878   -4.3412    9.6750 H         1 UNK         0.0000 
    167 H167        3.8420   -4.2482   11.0682 H         1 UNK         0.0000 
    168 H168        3.1988   -4.8464    9.5644 H         1 UNK         0.0000 
    169 H169        2.9893    4.0210    5.9558 H         1 UNK         0.0000 
    170 H170        3.4401    2.2347    2.7358 H         1 UNK         0.0000 
    171 H171        4.0423    3.8033    2.2365 H         1 UNK         0.0000 
    172 H172        6.1440    2.6198    3.5543 H         1 UNK         0.0000 
    173 H173        8.3482    2.3286    3.2951 H         1 UNK         0.0000 
    174 H174        8.4705    3.3926    1.9009 H         1 UNK         0.0000 
    175 H175        9.5060    1.9932    2.0089 H         1 UNK         0.0000 
    176 H176        9.2372   -0.0474    0.6197 H         1 UNK         0.0000 
    177 H177        9.0600   -1.3380    1.7934 H         1 UNK         0.0000 
@<TRIPOS>BOND
     1    1    5 nc   
     2    1    7 nc   
     3    1   41 nc   
     4    1   43 nc   
     5    1   77 nc   
     6    1   79 nc   
     7    2   96 1    
     8    2   98 1    
     9    2    3 1    
    10    2   97 1    
    11    3  100 1    
    12    3    4 1    
    13    3   99 1    
    14    4    5 2    
    15    4    6 am   BACKBONE|DICT|INTERRES
    16    6    7 1    
    17    6    8 1    
    18    8  101 1    
    19    8  102 1    
    20    8    9 1    
    21    9   10 1    
    22    9  103 1    
    23    9  104 1    
    24   10  105 1    
    25   10   11 1    
    26   10  106 1    
    27   11   12 1    
    28   11   95 1    
    29   11   13 1    
    30   13  107 1    
    31   13   14 am   BACKBONE|DICT|INTERRES
    32   14   15 2    
    33   14   16 1    
    34   16   17 1    
    35   16   18 1    
    36   16   20 1    
    37   18  109 1    
    38   18   19 1    
    39   18  108 1    
    40   19  110 1    
    41   20  111 1    
    42   20   21 am   BACKBONE|DICT|INTERRES
    43   21   22 2    
    44   21   23 1    
    45   23   24 1    
    46   23   28 1    
    47   23   25 1    
    48   25   27 1    
    49   25   26 1    
    50   25  112 1    
    51   26  113 1    
    52   26  114 1    
    53   26  115 1    
    54   27  116 1    
    55   27  118 1    
    56   27  117 1    
    57   28  119 1    
    58   28   29 am   BACKBONE|DICT|INTERRES
    59   29   31 1    
    60   29   30 2    
    61   31   32 1    
    62   31  121 1    
    63   31  120 1    
    64   32   33 am   BACKBONE|DICT|INTERRES
    65   32  122 1    
    66   33   34 2    
    67   33   35 1    
    68   35   36 1    
    69   35   37 1    
    70   35   46 1    
    71   37  123 1    
    72   37   38 1    
    73   37  124 1    
    74   38  126 1    
    75   38   39 1    
    76   38  125 1    
    77   39   40 1    
    78   39  128 1    
    79   39  127 1    
    80   40   42 am   BACKBONE|DICT|INTERRES
    81   40   41 1    
    82   42   43 2    
    83   42   44 1    
    84   44   45 1    
    85   44  129 1    
    86   44  130 1    
    87   45  131 1    
    88   45  132 1    
    89   45  133 1    
    90   46   47 am   BACKBONE|DICT|INTERRES
    91   46  134 1    
    92   47   49 1    
    93   47   48 2    
    94   49   50 1    
    95   49   51 1    
    96   49   63 1    
    97   51   52 am   BACKBONE|DICT|INTERRES
    98   51  135 1    
    99   52   53 2    
   100   52   54 1    
   101   54   55 1    
   102   54  136 1    
   103   54  137 1    
   104   55  138 1    
   105   55   56 2    
   106   56   57 1    
   107   56  139 1    
   108   57  141 1    
   109   57  140 1    
   110   57   58 1    
   111   58   59 1    
   112   58  142 1    
   113   58  143 1    
   114   59  144 1    
   115   59  145 1    
   116   59   60 1    
   117   60  147 1    
   118   60   61 1    
   119   60  146 1    
   120   61  149 1    
   121   61   62 1    
   122   61  148 1    
   123   62  152 1    
   124   62  150 1    
   125   62  151 1    
   126   63  153 1    
   127   63   64 1    
   128   63  154 1    
   129   64   65 1    
   130   65   66 2    
   131   65   67 1    
   132   67  156 1    
   133   67   68 1    
   134   67  155 1    
   135   68  157 1    
   136   68   69 am   BACKBONE|DICT|INTERRES
   137   69   71 1    
   138   69   70 2    
   139   71   72 1    
   140   71   82 1    
   141   71   73 1    
   142   73   74 1    
   143   73  159 1    
   144   73  158 1    
   145   74  160 1    
   146   74   75 1    
   147   74  161 1    
   148   75  162 1    
   149   75  163 1    
   150   75   76 1    
   151   76   78 am   BACKBONE|DICT|INTERRES
   152   76   77 1    
   153   78   79 2    
   154   78   80 1    
   155   80   81 1    
   156   80  165 1    
   157   80  164 1    
   158   81  167 1    
   159   81  166 1    
   160   81  168 1    
   161   82  169 1    
   162   82   83 am   BACKBONE|DICT|INTERRES
   163   83   84 2    
   164   83   85 1    
   165   85   86 1    
   166   85  170 1    
   167   85  171 1    
   168   86  172 1    
   169   86   87 am   BACKBONE|DICT|INTERRES
   170   87   88 2    
   171   87   89 1    
   172   89   90 1    
   173   89   92 1    
   174   89   91 1    
   175   91  173 1    
   176   91  174 1    
   177   91  175 1    
   178   92   94 1    
   179   92   93 1    
   180   92   95 1    
   181   95  177 1    
   182   95  176 1    
@<TRIPOS>SUBSTRUCTURE
     1 UNK         1 GROUP             0       ****    0 ROOT    
