@<TRIPOS>MOLECULE
220_c1
73   81    1
SMALL
USER_CHARGES


@<TRIPOS>ATOM
      1 Fe1         0.0328    0.0941   -0.0256 Fe        1 UNK         0.0000 
      2 C2          6.3291    1.9210    2.3049 C.3       1 UNK         0.0000 
      3 O3          5.9543    0.6132    1.8906 O.3       1 UNK         0.0000 
      4 C4          4.6891    0.4057    1.3817 C.ar      1 UNK         0.0000 
      5 C5          3.7154    1.4102    1.3292 C.ar      1 UNK         0.0000 
      6 C6          2.4668    1.1966    0.7597 C.ar      1 UNK         0.0000 
      7 C7          1.5739    2.3918    0.5207 C.2       1 UNK         0.0000 
      8 O8          0.5143    2.2042   -0.1350 O.co2     1 UNK         0.0000 
      9 O9          1.8838    3.5025    0.9982 O.co2     1 UNK         0.0000 
     10 N10         2.1313   -0.0589    0.2885 N.pl3     1 UNK         0.0000 
     11 C11         3.0957   -1.0316    0.2013 C.ar      1 UNK         0.0000 
     12 C12         4.3795   -0.8544    0.7912 C.ar      1 UNK         0.0000 
     13 C13         2.8521   -2.1993   -0.5845 C.ar      1 UNK         0.0000 
     14 O14         1.7239   -2.2892   -1.3610 O.3       1 UNK         0.0000 
     15 C15         3.8139   -3.2077   -0.6536 C.ar      1 UNK         0.0000 
     16 C16         5.0289   -3.0745    0.0061 C.ar      1 UNK         0.0000 
     17 C17         5.3267   -1.9102    0.7092 C.ar      1 UNK         0.0000 
     18 H18         7.3570    1.9331    2.6568 H         1 UNK         0.0000 
     19 H19         5.6988    2.2799    3.1211 H         1 UNK         0.0000 
     20 H20         6.2603    2.6225    1.4716 H         1 UNK         0.0000 
     21 H21         3.9456    2.4097    1.6778 H         1 UNK         0.0000 
     22 H22         1.6470   -3.1441   -1.8142 H         1 UNK         0.0000 
     23 H23         3.6342   -4.0830   -1.2572 H         1 UNK         0.0000 
     24 H24         5.7635   -3.8664   -0.0539 H         1 UNK         0.0000 
     25 H25         6.2920   -1.7941    1.1824 H         1 UNK         0.0000 
     26 C26         0.3205   -2.5179    6.5834 C.3       1 UNK         0.0000 
     27 O27         0.6103   -1.2001    6.1341 O.3       1 UNK         0.0000 
     28 C28         0.3390   -0.8382    4.8248 C.ar      1 UNK         0.0000 
     29 C29         0.2358   -1.7504    3.7678 C.ar      1 UNK         0.0000 
     30 C30        -0.0177   -1.3387    2.4459 C.ar      1 UNK         0.0000 
     31 C31        -0.1133   -2.4009    1.3725 C.2       1 UNK         0.0000 
     32 O32        -0.3953   -2.0244    0.1926 O.co2     1 UNK         0.0000 
     33 O33         0.2206   -3.5680    1.6458 O.co2     1 UNK         0.0000 
     34 N34        -0.1947    0.0032    2.1339 N.pl3     1 UNK         0.0000 
     35 C35        -0.2312    0.9034    3.1952 C.ar      1 UNK         0.0000 
     36 C36         0.1358    0.5355    4.5308 C.ar      1 UNK         0.0000 
     37 C37        -0.6383    2.2578    2.9704 C.ar      1 UNK         0.0000 
     38 O38        -1.2228    2.6227    1.7838 O.3       1 UNK         0.0000 
     39 C39        -0.4477    3.2233    3.9629 C.ar      1 UNK         0.0000 
     40 C40         0.0307    2.8807    5.2221 C.ar      1 UNK         0.0000 
     41 C41         0.2686    1.5449    5.5336 C.ar      1 UNK         0.0000 
     42 H42         0.3087   -2.5557    7.6728 H         1 UNK         0.0000 
     43 H43         1.0668   -3.2362    6.2417 H         1 UNK         0.0000 
     44 H44        -0.6667   -2.8247    6.2368 H         1 UNK         0.0000 
     45 H45         0.3505   -2.8109    3.9860 H         1 UNK         0.0000 
     46 H46        -1.2471    3.5829    1.6353 H         1 UNK         0.0000 
     47 H47        -0.6933    4.2531    3.7481 H         1 UNK         0.0000 
     48 H48         0.1631    3.6442    5.9747 H         1 UNK         0.0000 
     49 H49         0.5891    1.2646    6.5307 H         1 UNK         0.0000 
     50 C50        -2.6072    0.0631   -6.6163 C.3       1 UNK         0.0000 
     51 O51        -1.2744   -0.2617   -6.2488 O.3       1 UNK         0.0000 
     52 C52        -0.8743   -0.1628   -4.9259 C.ar      1 UNK         0.0000 
     53 C53        -1.7531   -0.0675   -3.8511 C.ar      1 UNK         0.0000 
     54 C54        -1.3250    0.0568   -2.5190 C.ar      1 UNK         0.0000 
     55 C55        -2.4155    0.1763   -1.4650 C.2       1 UNK         0.0000 
     56 O56        -2.0759    0.4790   -0.2816 O.co2     1 UNK         0.0000 
     57 O57        -3.5953   -0.0505   -1.7967 O.co2     1 UNK         0.0000 
     58 N58         0.0318    0.0954   -2.2037 N.pl3     1 UNK         0.0000 
     59 C59         0.9347    0.0918   -3.2882 C.ar      1 UNK         0.0000 
     60 C60         0.5034   -0.1244   -4.6418 C.ar      1 UNK         0.0000 
     61 C61         2.3436    0.3659   -3.1417 C.ar      1 UNK         0.0000 
     62 O62         2.8881    0.8813   -2.0159 O.3       1 UNK         0.0000 
     63 C63         3.2415    0.1957   -4.1949 C.ar      1 UNK         0.0000 
     64 C64         2.8090   -0.1482   -5.4585 C.ar      1 UNK         0.0000 
     65 C65         1.4510   -0.2538   -5.7037 C.ar      1 UNK         0.0000 
     66 H66        -2.7005    0.1514   -7.6987 H         1 UNK         0.0000 
     67 H67        -2.9217    1.0151   -6.1830 H         1 UNK         0.0000 
     68 H68        -3.2882   -0.7232   -6.2927 H         1 UNK         0.0000 
     69 H69         3.8115    1.1443   -2.1146 H         1 UNK         0.0000 
     70 H70         4.2989    0.3630   -4.0412 H         1 UNK         0.0000 
     71 H71         3.5214   -0.2645   -6.2603 H         1 UNK         0.0000 
     72 H72         1.0979   -0.4207   -6.7141 H         1 UNK         0.0000 
     73 H73        -2.8165   -0.0982   -4.0659 H         1 UNK         0.0000 
@<TRIPOS>BOND
     1    1    8 nc   
     2    1   10 nc   
     3    1   32 nc   
     4    1   34 nc   
     5    1   56 nc   
     6    1   58 nc   
     7    2   18 1    
     8    2   19 1    
     9    2    3 1    
    10    2   20 1    
    11    3    4 1    
    12    4    5 ar   
    13    4   12 ar   
    14    5   21 1    
    15    5    6 ar   
    16    6    7 1    
    17    6   10 ar   
    18    7    9 2    
    19    7    8 1    
    20   10   11 ar   
    21   11   13 ar   
    22   11   12 ar   
    23   12   17 ar   
    24   13   15 ar   
    25   13   14 1    
    26   14   22 1    
    27   15   16 ar   
    28   15   23 1    
    29   16   24 1    
    30   16   17 ar   
    31   17   25 1    
    32   26   42 1    
    33   26   27 1    
    34   26   43 1    
    35   26   44 1    
    36   27   28 1    
    37   28   29 ar   
    38   28   36 ar   
    39   29   45 1    
    40   29   30 ar   
    41   30   31 1    
    42   30   34 ar   
    43   31   33 2    
    44   31   32 1    
    45   34   35 ar   
    46   35   37 ar   
    47   35   36 ar   
    48   36   41 ar   
    49   37   39 ar   
    50   37   38 1    
    51   38   46 1    
    52   39   40 ar   
    53   39   47 1    
    54   40   41 ar   
    55   40   48 1    
    56   41   49 1    
    57   50   68 1    
    58   50   67 1    
    59   50   51 1    
    60   50   66 1    
    61   51   52 1    
    62   52   60 ar   
    63   52   53 ar   
    64   53   54 ar   
    65   53   73 1    
    66   54   58 ar   
    67   54   55 1    
    68   55   56 1    
    69   55   57 2    
    70   58   59 ar   
    71   59   61 ar   
    72   59   60 ar   
    73   60   65 ar   
    74   61   62 1    
    75   61   63 ar   
    76   62   69 1    
    77   63   70 1    
    78   63   64 ar   
    79   64   65 ar   
    80   64   71 1    
    81   65   72 1    
@<TRIPOS>SUBSTRUCTURE
     1 UNK         1 GROUP             0       ****    0 ROOT    
