@<TRIPOS>MOLECULE
024_r4_c1
53   60    1
SMALL
USER_CHARGES


@<TRIPOS>ATOM
      1 Fe1         0.0000    0.0000    0.0000 Fe        1 UNK         0.0000 
      2 O2          0.0002   -1.9044   -0.0799 O.co2     1 UNK         0.0000 
      3 C3          0.9265   -2.6870   -0.6859 C.2       1 UNK         0.0000 
      4 C4          0.5534   -3.9922   -1.0118 C.2       1 UNK         0.0000 
      5 C5          1.4449   -4.8385   -1.6601 C.2       1 UNK         0.0000 
      6 C6          2.7120   -4.3694   -1.9874 C.3       1 UNK         0.0000 
      7 N7          3.0788   -3.0981   -1.6722 N.pl3     1 UNK         0.0000 
      8 H8          4.0436   -2.8072   -1.9428 H         1 UNK         0.0000 
      9 C9          2.2408   -2.2281   -1.0246 C.2       1 UNK         0.0000 
     10 C10         2.7519   -0.8424   -0.7205 C.2       1 UNK         0.0000 
     11 N11         2.1000    0.0000    0.0000 N.pl3     1 UNK         0.0000 
     12 S12         4.3204   -0.2062   -1.3461 S.3       1 UNK         0.0000 
     13 C13         3.6226    1.4514   -1.0649 C.3       1 UNK         0.0000 
     14 C14         2.7010    1.2987    0.1491 C.3       1 UNK         0.0000 
     15 C15         1.6092    2.3338    0.1549 C.2       1 UNK         0.0000 
     16 O16         0.3246    1.9044    0.0799 O.co2     1 UNK         0.0000 
     17 O17         1.8583    3.5266    0.2351 O.co2     1 UNK         0.0000 
     18 C18         3.4814    1.3409    1.4746 C.3       1 UNK         0.0000 
     19 H19        -0.4384   -4.3506   -0.7633 H         1 UNK         0.0000 
     20 H20         1.1530   -5.8497   -1.9126 H         1 UNK         0.0000 
     21 H21         3.4088   -5.0230   -2.4969 H         1 UNK         0.0000 
     22 H22         3.0288    1.6807   -1.9780 H         1 UNK         0.0000 
     23 H23         4.3822    2.2477   -0.9122 H         1 UNK         0.0000 
     24 H24         3.9741    2.3281    1.6058 H         1 UNK         0.0000 
     25 H25         2.7932    1.1719    2.3312 H         1 UNK         0.0000 
     26 H26         4.2647    0.5535    1.5000 H         1 UNK         0.0000 
     27 O27        -0.0002    0.0799    1.9044 O.co2     1 UNK         0.0000 
     28 C28        -0.9268    0.6854    2.6871 C.2       1 UNK         0.0000 
     29 C29        -0.5536    1.0101    3.9926 C.2       1 UNK         0.0000 
     30 C30        -1.4449    1.6586    4.8388 C.2       1 UNK         0.0000 
     31 C31        -2.7119    1.9863    4.3701 C.3       1 UNK         0.0000 
     32 N32        -3.0789    1.6714    3.0986 N.pl3     1 UNK         0.0000 
     33 H33        -4.0435    1.9418    2.8077 H         1 UNK         0.0000 
     34 C34        -2.2408    1.0241    2.2285 C.2       1 UNK         0.0000 
     35 C35        -2.7519    0.7205    0.8425 C.2       1 UNK         0.0000 
     36 N36        -2.1000    0.0000    0.0000 N.pl3     1 UNK         0.0000 
     37 S37        -4.3203    1.3462    0.2061 S.3       1 UNK         0.0000 
     38 C38        -3.6224    1.0653   -1.4515 C.3       1 UNK         0.0000 
     39 C39        -2.7010   -0.1490   -1.2988 C.3       1 UNK         0.0000 
     40 C40        -1.6092   -0.1544   -2.3339 C.2       1 UNK         0.0000 
     41 O41        -0.3246   -0.0799   -1.9044 O.co2     1 UNK         0.0000 
     42 O42        -1.8583   -0.2343   -3.5267 O.co2     1 UNK         0.0000 
     43 C43        -3.4815   -1.4744   -1.3410 C.3       1 UNK         0.0000 
     44 H44         0.4379    0.7618    4.3508 H         1 UNK         0.0000 
     45 H45        -1.1536    1.9103    5.8504 H         1 UNK         0.0000 
     46 H46        -3.4093    2.4951    5.0238 H         1 UNK         0.0000 
     47 H47        -3.0284    1.9784   -1.6805 H         1 UNK         0.0000 
     48 H48        -4.3819    0.9128   -2.2478 H         1 UNK         0.0000 
     49 H49        -3.9739   -1.6051   -2.3286 H         1 UNK         0.0000 
     50 H50        -2.7935   -2.3310   -1.1722 H         1 UNK         0.0000 
     51 H51        -4.2651   -1.4996   -0.5541 H         1 UNK         0.0000 
     52 H52         3.0892   -4.7168   -1.0256 H         1 UNK         0.0000 
     53 H53        -2.3349    2.9484    4.0232 H         1 UNK         0.0000 
@<TRIPOS>BOND
     1    1    2 nc   
     2    1   11 nc   
     3    1   16 nc   
     4    1   27 nc   
     5    1   36 nc   
     6    1   41 nc   
     7    2    3 1    
     8    3    4 1    
     9    3    9 2    
    10    4   19 1    
    11    4    5 2    
    12    5    6 1    
    13    5   20 1    
    14    6    7 1    
    15    6   21 1    
    16    6   52 1    
    17    7    9 1    
    18    7    8 1    
    19    9   10 1    
    20   10   12 1    
    21   10   11 2    
    22   11   14 1    
    23   12   13 1    
    24   13   23 1    
    25   13   14 1    
    26   13   22 1    
    27   14   15 1    
    28   14   18 1    
    29   15   17 2    
    30   15   16 1    
    31   18   26 1    
    32   18   24 1    
    33   18   25 1    
    34   27   28 1    
    35   28   29 1    
    36   28   34 2    
    37   29   44 1    
    38   29   30 2    
    39   30   45 1    
    40   30   31 1    
    41   31   46 1    
    42   31   32 1    
    43   31   53 1    
    44   32   33 1    
    45   32   34 1    
    46   34   35 1    
    47   35   36 2    
    48   35   37 1    
    49   36   39 1    
    50   37   38 1    
    51   38   39 1    
    52   38   47 1    
    53   38   48 1    
    54   39   40 1    
    55   39   43 1    
    56   40   41 1    
    57   40   42 2    
    58   43   50 1    
    59   43   51 1    
    60   43   49 1    
@<TRIPOS>SUBSTRUCTURE
     1 UNK         1 GROUP             0       ****    0 ROOT    
