@<TRIPOS>MOLECULE
060_c1
137   142    1
SMALL
USER_CHARGES


@<TRIPOS>ATOM
      1 Fe1        -1.0919    2.7971   -1.1751 Fe        1 UNK         0.0000 
      2 O2          5.7711    4.7954   -6.8446 O.3       1 UNK         0.0000 
      3 C3          4.5153    5.0272   -6.2372 C.3       1 UNK         0.0000 
      4 C4          4.1424    3.8137   -5.3596 C.3       1 UNK         0.0000 
      5 C5          2.7873    3.8326   -4.6421 C.2       1 UNK         0.0000 
      6 C6          1.9797    5.1387   -4.7293 C.3       1 UNK         0.0000 
      7 C7          2.3894    2.7015   -4.0063 C.2       1 UNK         0.0000 
      8 C8          1.1630    2.5187   -3.2668 C.2       1 UNK         0.0000 
      9 O9          0.5151    3.4069   -2.6573 O.co2     1 UNK         0.0000 
     10 N10         0.6522    1.2648   -3.1412 N.am      1 UNK         0.0000 
     11 O11        -0.4184    1.2355   -2.4214 O.co2     1 UNK         0.0000 
     12 C12         1.2070   -0.0829   -3.4451 C.3       1 UNK         0.0000 
     13 C13         0.3682   -1.2341   -2.7877 C.3       1 UNK         0.0000 
     14 C14         0.6906   -2.6779   -3.1028 C.3       1 UNK         0.0000 
     15 C15        -0.2222   -3.6645   -2.3074 C.3       1 UNK         0.0000 
     16 H16        -0.0632   -3.5486   -1.2325 H         1 UNK         0.0000 
     17 C17         0.1399   -5.1050   -2.7432 C.2       1 UNK         0.0000 
     18 O18         0.6279   -5.2908   -3.8561 O.2       1 UNK         0.0000 
     19 N19        -0.1791   -6.1109   -1.9207 N.am      1 UNK         0.0000 
     20 C20        -0.0594   -7.5299   -2.2692 C.3       1 UNK         0.0000 
     21 H21        -0.6489   -7.7047   -3.1721 H         1 UNK         0.0000 
     22 C22         1.4023   -7.9475   -2.5848 C.3       1 UNK         0.0000 
     23 O23         2.2932   -7.7483   -1.4928 O.3       1 UNK         0.0000 
     24 C24        -0.7102   -8.3703   -1.1672 C.2       1 UNK         0.0000 
     25 O25        -1.6648   -9.0900   -1.4327 O.2       1 UNK         0.0000 
     26 N26        -0.1840   -8.2381    0.0547 N.am      1 UNK         0.0000 
     27 C27        -0.6501   -8.9222    1.2535 C.3       1 UNK         0.0000 
     28 H28        -1.4671   -9.6052    1.0101 H         1 UNK         0.0000 
     29 C29         0.5185   -9.7583    1.8134 C.3       1 UNK         0.0000 
     30 O30         1.6484   -8.9437    2.1013 O.3       1 UNK         0.0000 
     31 C31        -1.2088   -7.9069    2.2649 C.2       1 UNK         0.0000 
     32 O32        -2.3154   -8.0933    2.7592 O.2       1 UNK         0.0000 
     33 N33        -0.4432   -6.8439    2.5476 N.am      1 UNK         0.0000 
     34 C34        -0.8542   -5.7894    3.4602 C.3       1 UNK         0.0000 
     35 C35        -1.1524   -4.5304    2.6393 C.2       1 UNK         0.0000 
     36 O36        -0.3352   -4.1180    1.8181 O.2       1 UNK         0.0000 
     37 N37        -2.3010   -3.9041    2.9219 N.am      1 UNK         0.0000 
     38 C38        -2.7043   -2.5664    2.4999 C.3       1 UNK         0.0000 
     39 H39        -3.4009   -2.3759    3.3165 H         1 UNK         0.0000 
     40 C40        -1.7511   -1.4034    2.9285 C.3       1 UNK         0.0000 
     41 C41        -1.8987   -0.0550    2.2392 C.3       1 UNK         0.0000 
     42 C42        -0.9837    1.1211    2.7817 C.3       1 UNK         0.0000 
     43 N43        -0.7041    2.1708    1.7777 N.am      1 UNK         0.0000 
     44 O44        -0.7396    1.7213    0.5782 O.co2     1 UNK         0.0000 
     45 C45        -0.4806    3.5142    1.8094 C.2       1 UNK         0.0000 
     46 O46        -0.5278    4.0848    0.6870 O.co2     1 UNK         0.0000 
     47 C47         0.0182    4.0782    3.0424 C.2       1 UNK         0.0000 
     48 C48         0.1555    5.3889    3.3563 C.2       1 UNK         0.0000 
     49 C49        -0.3475    6.5854    2.5352 C.3       1 UNK         0.0000 
     50 C50         0.9018    5.7035    4.6481 C.3       1 UNK         0.0000 
     51 C51         0.9548    7.1598    5.1537 C.3       1 UNK         0.0000 
     52 O52         1.7386    7.1220    6.3382 O.3       1 UNK         0.0000 
     53 C53         1.9831    8.1853    7.1401 C.2       1 UNK         0.0000 
     54 O54         2.6680    8.0967    8.1542 O.2       1 UNK         0.0000 
     55 C55         1.3795    9.5410    6.7699 C.3       1 UNK         0.0000 
     56 C56        -3.8325   -2.5964    1.4141 C.2       1 UNK         0.0000 
     57 O57        -4.9368   -2.9448    1.8235 O.2       1 UNK         0.0000 
     58 N58        -3.7488   -2.3785    0.0863 N.am      1 UNK         0.0000 
     59 C59        -2.8097   -1.9123   -0.9301 C.3       1 UNK         0.0000 
     60 H60        -1.8345   -1.6804   -0.5013 H         1 UNK         0.0000 
     61 C61        -2.7608   -3.0754   -1.9747 C.2       1 UNK         0.0000 
     62 O62        -3.8472   -3.5311   -2.3263 O.2       1 UNK         0.0000 
     63 N63        -1.6608   -3.5544   -2.5984 N.am      1 UNK         0.0000 
     64 C64        -3.4737   -0.6756   -1.6919 C.3       1 UNK         0.0000 
     65 C65        -4.4322    0.2913   -0.9070 C.3       1 UNK         0.0000 
     66 C66        -4.8011    1.7004   -1.5823 C.3       1 UNK         0.0000 
     67 N67        -3.6962    2.6952   -1.7314 N.am      1 UNK         0.0000 
     68 O68        -2.5842    2.2369   -1.2549 O.co2     1 UNK         0.0000 
     69 C69        -3.4713    3.9858   -2.2140 C.2       1 UNK         0.0000 
     70 O70        -2.2702    4.3148   -1.9583 O.co2     1 UNK         0.0000 
     71 C71        -4.2754    4.8474   -3.0783 C.2       1 UNK         0.0000 
     72 C72        -5.5869    4.9711   -3.4262 C.2       1 UNK         0.0000 
     73 C73        -6.7792    4.1362   -2.9871 C.3       1 UNK         0.0000 
     74 C74        -5.9105    6.1361   -4.3935 C.3       1 UNK         0.0000 
     75 C75        -7.3773    6.4422   -4.7684 C.3       1 UNK         0.0000 
     76 O76        -7.4418    7.5872   -5.6120 O.3       1 UNK         0.0000 
     77 H77         5.9939    5.5221   -7.4313 H         1 UNK         0.0000 
     78 H78         4.5609    5.9372   -5.6363 H         1 UNK         0.0000 
     79 H79         3.7611    5.1786   -7.0109 H         1 UNK         0.0000 
     80 H80         4.9249    3.6602   -4.6109 H         1 UNK         0.0000 
     81 H81         4.1687    2.9195   -5.9885 H         1 UNK         0.0000 
     82 H82         1.7723    5.3946   -5.7704 H         1 UNK         0.0000 
     83 H83         2.5151    5.9676   -4.2611 H         1 UNK         0.0000 
     84 H84         1.0060    5.0992   -4.2558 H         1 UNK         0.0000 
     85 H85         3.0202    1.8268   -4.0258 H         1 UNK         0.0000 
     86 H86         1.2539   -0.2382   -4.5262 H         1 UNK         0.0000 
     87 H87         2.2406   -0.1467   -3.1030 H         1 UNK         0.0000 
     88 H88        -0.6673   -1.1058   -3.0916 H         1 UNK         0.0000 
     89 H89         0.4017   -1.1080   -1.7074 H         1 UNK         0.0000 
     90 H90         0.5748   -2.8191   -4.1786 H         1 UNK         0.0000 
     91 H91         1.7375   -2.8737   -2.8622 H         1 UNK         0.0000 
     92 H92        -0.6411   -5.9176   -1.0463 H         1 UNK         0.0000 
     93 H93         1.7888   -7.4392   -3.4704 H         1 UNK         0.0000 
     94 H94         1.4190   -9.0097   -2.8457 H         1 UNK         0.0000 
     95 H95         3.1929   -7.8723   -1.8043 H         1 UNK         0.0000 
     96 H96         0.6653   -7.6979    0.1540 H         1 UNK         0.0000 
     97 H97         0.1973  -10.2810    2.7170 H         1 UNK         0.0000 
     98 H98         0.8055  -10.5317    1.0984 H         1 UNK         0.0000 
     99 H99         2.3392   -9.4872    2.4851 H         1 UNK         0.0000 
    100 H100        0.4608   -6.7464    2.1097 H         1 UNK         0.0000 
    101 H101       -1.7078   -6.0758    4.0753 H         1 UNK         0.0000 
    102 H102       -0.0371   -5.5746    4.1460 H         1 UNK         0.0000 
    103 H103       -3.0013   -4.3829    3.4718 H         1 UNK         0.0000 
    104 H104       -1.8917   -1.2207    3.9947 H         1 UNK         0.0000 
    105 H105       -0.7101   -1.7203    2.8293 H         1 UNK         0.0000 
    106 H106       -1.6543   -0.3187    1.2154 H         1 UNK         0.0000 
    107 H107       -2.9316    0.2797    2.2281 H         1 UNK         0.0000 
    108 H108       -0.0128    0.7078    3.0755 H         1 UNK         0.0000 
    109 H109       -1.3997    1.5265    3.7020 H         1 UNK         0.0000 
    110 H110        0.3500    3.3333    3.7492 H         1 UNK         0.0000 
    111 H111       -1.0416    7.1878    3.1265 H         1 UNK         0.0000 
    112 H112       -0.8976    6.3133    1.6413 H         1 UNK         0.0000 
    113 H113        0.4761    7.2303    2.2181 H         1 UNK         0.0000 
    114 H114        0.5058    5.0635    5.4389 H         1 UNK         0.0000 
    115 H115        1.9282    5.3626    4.4917 H         1 UNK         0.0000 
    116 H116       -0.0581    7.5152    5.3710 H         1 UNK         0.0000 
    117 H117        1.4390    7.8022    4.4084 H         1 UNK         0.0000 
    118 H118        2.1864   10.2603    6.6472 H         1 UNK         0.0000 
    119 H119        0.7645    9.8848    7.5988 H         1 UNK         0.0000 
    120 H120        0.7723    9.5434    5.8648 H         1 UNK         0.0000 
    121 H121       -4.5861   -2.6756   -0.3844 H         1 UNK         0.0000 
    122 H122       -1.9170   -4.1872   -3.3395 H         1 UNK         0.0000 
    123 H123       -2.6918   -0.1150   -2.2052 H         1 UNK         0.0000 
    124 H124       -4.0896   -1.0406   -2.5187 H         1 UNK         0.0000 
    125 H125       -4.0062    0.4609    0.0794 H         1 UNK         0.0000 
    126 H126       -5.3559   -0.2660   -0.7108 H         1 UNK         0.0000 
    127 H127       -5.2472    1.5239   -2.5659 H         1 UNK         0.0000 
    128 H128       -5.5846    2.1021   -0.9282 H         1 UNK         0.0000 
    129 H129       -3.6134    5.5762   -3.5304 H         1 UNK         0.0000 
    130 H130       -7.2274    3.6316   -3.8473 H         1 UNK         0.0000 
    131 H131       -6.5341    3.3825   -2.2581 H         1 UNK         0.0000 
    132 H132       -7.5362    4.7682   -2.5219 H         1 UNK         0.0000 
    133 H133       -5.3449    5.9737   -5.3104 H         1 UNK         0.0000 
    134 H134       -5.4805    7.0392   -3.9621 H         1 UNK         0.0000 
    135 H135       -7.8221    5.5911   -5.2850 H         1 UNK         0.0000 
    136 H136       -7.9708    6.6340   -3.8744 H         1 UNK         0.0000 
    137 H137       -8.3598    7.7691   -5.8412 H         1 UNK         0.0000 
@<TRIPOS>BOND
     1    1    9 nc   
     2    1   11 nc   
     3    1   44 nc   
     4    1   46 nc   
     5    1   68 nc   
     6    1   70 nc   
     7    2    3 1    
     8    2   77 1    
     9    3   78 1    
    10    3    4 1    
    11    3   79 1    
    12    4    5 1    
    13    4   80 1    
    14    4   81 1    
    15    5    7 2    
    16    5    6 1    
    17    6   83 1    
    18    6   84 1    
    19    6   82 1    
    20    7    8 1    
    21    7   85 1    
    22    8   10 am   BACKBONE|DICT|INTERRES
    23    8    9 2    
    24   10   11 1    
    25   10   12 1    
    26   12   87 1    
    27   12   13 1    
    28   12   86 1    
    29   13   89 1    
    30   13   14 1    
    31   13   88 1    
    32   14   91 1    
    33   14   15 1    
    34   14   90 1    
    35   15   16 1    
    36   15   17 1    
    37   15   63 1    
    38   17   19 am   BACKBONE|DICT|INTERRES
    39   17   18 2    
    40   19   92 1    
    41   19   20 1    
    42   20   21 1    
    43   20   24 1    
    44   20   22 1    
    45   22   23 1    
    46   22   93 1    
    47   22   94 1    
    48   23   95 1    
    49   24   26 am   BACKBONE|DICT|INTERRES
    50   24   25 2    
    51   26   96 1    
    52   26   27 1    
    53   27   28 1    
    54   27   29 1    
    55   27   31 1    
    56   29   30 1    
    57   29   97 1    
    58   29   98 1    
    59   30   99 1    
    60   31   33 am   BACKBONE|DICT|INTERRES
    61   31   32 2    
    62   33   34 1    
    63   33  100 1    
    64   34  101 1    
    65   34  102 1    
    66   34   35 1    
    67   35   37 am   BACKBONE|DICT|INTERRES
    68   35   36 2    
    69   37  103 1    
    70   37   38 1    
    71   38   40 1    
    72   38   39 1    
    73   38   56 1    
    74   40  105 1    
    75   40  104 1    
    76   40   41 1    
    77   41   42 1    
    78   41  106 1    
    79   41  107 1    
    80   42  108 1    
    81   42  109 1    
    82   42   43 1    
    83   43   44 1    
    84   43   45 am   BACKBONE|DICT|INTERRES
    85   45   47 1    
    86   45   46 2    
    87   47   48 2    
    88   47  110 1    
    89   48   50 1    
    90   48   49 1    
    91   49  111 1    
    92   49  112 1    
    93   49  113 1    
    94   50   51 1    
    95   50  114 1    
    96   50  115 1    
    97   51  116 1    
    98   51   52 1    
    99   51  117 1    
   100   52   53 1    
   101   53   54 2    
   102   53   55 1    
   103   55  119 1    
   104   55  118 1    
   105   55  120 1    
   106   56   57 2    
   107   56   58 am   BACKBONE|DICT|INTERRES
   108   58   59 1    
   109   58  121 1    
   110   59   60 1    
   111   59   61 1    
   112   59   64 1    
   113   61   62 2    
   114   61   63 am   BACKBONE|DICT|INTERRES
   115   63  122 1    
   116   64   65 1    
   117   64  123 1    
   118   64  124 1    
   119   65  126 1    
   120   65  125 1    
   121   65   66 1    
   122   66  128 1    
   123   66   67 1    
   124   66  127 1    
   125   67   69 am   BACKBONE|DICT|INTERRES
   126   67   68 1    
   127   69   70 2    
   128   69   71 1    
   129   71   72 2    
   130   71  129 1    
   131   72   73 1    
   132   72   74 1    
   133   73  132 1    
   134   73  131 1    
   135   73  130 1    
   136   74  134 1    
   137   74   75 1    
   138   74  133 1    
   139   75  136 1    
   140   75   76 1    
   141   75  135 1    
   142   76  137 1    
@<TRIPOS>SUBSTRUCTURE
     1 UNK         1 GROUP             0       ****    0 ROOT    
