@<TRIPOS>MOLECULE
233_c1
54   58    1
SMALL
USER_CHARGES


@<TRIPOS>ATOM
      1 Fe1         0.4264    0.9124    1.1157 Fe        1 UNK         0.0000 
      2 O2          0.6789    0.2510    3.1898 O.co2     1 UNK         0.0000 
      3 C3          0.5230   -0.9717    3.3699 C.2       1 UNK         0.0000 
      4 C4          0.2710   -1.6239    4.7348 C.3       1 UNK         0.0000 
      5 N5          0.4841   -1.6551    2.2076 N.am      1 UNK         0.0000 
      6 O6          0.6069   -0.9162    1.1405 O.co2     1 UNK         0.0000 
      7 C7          0.2420   -3.0950    1.9823 C.3       1 UNK         0.0000 
      8 C8          0.2961   -3.6304    0.5088 C.3       1 UNK         0.0000 
      9 C9         -0.9466   -3.4091   -0.4024 C.3       1 UNK         0.0000 
     10 N10        -1.0113   -2.1204   -1.1098 N.am      1 UNK         0.0000 
     11 C11        -0.2606   -1.7333   -2.1579 C.2       1 UNK         0.0000 
     12 O12         0.5631   -2.4875   -2.6803 O.2       1 UNK         0.0000 
     13 C13        -0.5351   -0.3261   -2.7765 C.3       1 UNK         0.0000 
     14 C14        -0.2641    0.9800   -1.9332 C.3       1 UNK         0.0000 
     15 O15        -0.9935    0.9412   -0.7180 O.co2     1 UNK         0.0000 
     16 C16         1.2963    1.0498   -1.6136 C.2       1 UNK         0.0000 
     17 O17         1.5555    0.9249   -0.3776 O.co2     1 UNK         0.0000 
     18 O18         2.1064    1.4036   -2.4973 O.co2     1 UNK         0.0000 
     19 C19        -0.6619    2.2785   -2.7411 C.3       1 UNK         0.0000 
     20 C20        -0.6340    3.6578   -2.0205 C.2       1 UNK         0.0000 
     21 O21        -1.6673    4.3242   -1.9108 O.2       1 UNK         0.0000 
     22 N22         0.5548    4.1241   -1.5948 N.am      1 UNK         0.0000 
     23 C23         0.8123    5.4246   -0.9767 C.3       1 UNK         0.0000 
     24 C24         0.1899    5.6560    0.4190 C.3       1 UNK         0.0000 
     25 C25         0.7620    4.8615    1.6237 C.3       1 UNK         0.0000 
     26 N26         0.2913    3.4687    1.7647 N.am      1 UNK         0.0000 
     27 O27         1.1932    2.5248    1.5270 O.co2     1 UNK         0.0000 
     28 C28        -0.9688    3.0701    2.0490 C.2       1 UNK         0.0000 
     29 O29        -1.1363    1.8424    1.9668 O.co2     1 UNK         0.0000 
     30 C30        -2.0938    4.0269    2.4417 C.3       1 UNK         0.0000 
     31 H31         0.0389   -2.6852    4.6467 H         1 UNK         0.0000 
     32 H32        -0.5718   -1.1388    5.2253 H         1 UNK         0.0000 
     33 H33         1.1387   -1.5180    5.3804 H         1 UNK         0.0000 
     34 H34        -0.7144   -3.3699    2.4257 H         1 UNK         0.0000 
     35 H35         0.9978   -3.6321    2.5521 H         1 UNK         0.0000 
     36 H36         0.4527   -4.7065    0.5669 H         1 UNK         0.0000 
     37 H37         1.1834   -3.2494    0.0001 H         1 UNK         0.0000 
     38 H38        -1.8529   -3.5206    0.1906 H         1 UNK         0.0000 
     39 H39        -1.0012   -4.2252   -1.1286 H         1 UNK         0.0000 
     40 H40        -1.5294   -1.3518   -0.7057 H         1 UNK         0.0000 
     41 H41         0.0010   -0.2648   -3.7248 H         1 UNK         0.0000 
     42 H42        -1.5887   -0.3272   -3.0564 H         1 UNK         0.0000 
     43 H43        -1.6805    2.1498   -3.1133 H         1 UNK         0.0000 
     44 H44        -0.0537    2.3782   -3.6390 H         1 UNK         0.0000 
     45 H45         1.3333    3.4806   -1.7157 H         1 UNK         0.0000 
     46 H46         0.4930    6.2206   -1.6534 H         1 UNK         0.0000 
     47 H47         1.8978    5.5174   -0.9035 H         1 UNK         0.0000 
     48 H48        -0.8878    5.5371    0.3563 H         1 UNK         0.0000 
     49 H49         0.3458    6.7094    0.6393 H         1 UNK         0.0000 
     50 H50         1.8545    4.8894    1.5692 H         1 UNK         0.0000 
     51 H51         0.5418    5.4004    2.5456 H         1 UNK         0.0000 
     52 H52        -1.8030    5.0749    2.3904 H         1 UNK         0.0000 
     53 H53        -2.4194    3.8205    3.4624 H         1 UNK         0.0000 
     54 H54        -2.9463    3.8788    1.7772 H         1 UNK         0.0000 
@<TRIPOS>BOND
     1    1    2 nc   
     2    1    6 nc   
     3    1   15 nc   
     4    1   17 nc   
     5    1   27 nc   
     6    1   29 nc   
     7    2    3 2    
     8    3    4 1    
     9    3    5 am   BACKBONE|DICT|INTERRES
    10    4   31 1    
    11    4   32 1    
    12    4   33 1    
    13    5    6 1    
    14    5    7 1    
    15    7   34 1    
    16    7   35 1    
    17    7    8 1    
    18    8   36 1    
    19    8    9 1    
    20    8   37 1    
    21    9   38 1    
    22    9   10 1    
    23    9   39 1    
    24   10   40 1    
    25   10   11 am   BACKBONE|DICT|INTERRES
    26   11   12 2    
    27   11   13 1    
    28   13   14 1    
    29   13   41 1    
    30   13   42 1    
    31   14   16 1    
    32   14   15 1    
    33   14   19 1    
    34   16   17 1    
    35   16   18 2    
    36   19   20 1    
    37   19   43 1    
    38   19   44 1    
    39   20   21 2    
    40   20   22 am   BACKBONE|DICT|INTERRES
    41   22   23 1    
    42   22   45 1    
    43   23   47 1    
    44   23   24 1    
    45   23   46 1    
    46   24   49 1    
    47   24   25 1    
    48   24   48 1    
    49   25   26 1    
    50   25   51 1    
    51   25   50 1    
    52   26   28 am   BACKBONE|DICT|INTERRES
    53   26   27 1    
    54   28   29 2    
    55   28   30 1    
    56   30   53 1    
    57   30   52 1    
    58   30   54 1    
@<TRIPOS>SUBSTRUCTURE
     1 UNK         1 GROUP             0       ****    0 ROOT    
