@<TRIPOS>MOLECULE
185_J8_c1
100   107    1
SMALL
USER_CHARGES


@<TRIPOS>ATOM
      1 Fe1         0.0116   -0.0368    0.1381 Fe        1 UNK         0.0000 
      2 F2          0.5983   -5.8788    2.9469 F         1 UNK         0.0000 
      3 C3         -0.1228   -4.8739    2.3851 C.ar      1 UNK         0.0000 
      4 C4         -1.4150   -4.6606    2.8653 C.ar      1 UNK         0.0000 
      5 C5         -2.2340   -3.7030    2.2880 C.ar      1 UNK         0.0000 
      6 C6         -1.7328   -2.9154    1.2569 C.ar      1 UNK         0.0000 
      7 C7         -0.4201   -3.0458    0.8083 C.ar      1 UNK         0.0000 
      8 O8         -0.0305   -2.1674   -0.0370 O.co2     1 UNK         0.0000 
      9 C9          0.3969   -4.0891    1.3229 C.ar      1 UNK         0.0000 
     10 C10         1.7482   -4.4411    0.7205 C.2       1 UNK         0.0000 
     11 O11         1.9144   -4.4716   -0.4962 O.2       1 UNK         0.0000 
     12 N12         2.7250   -4.7782    1.5857 N.am      1 UNK         0.0000 
     13 C13         4.1154   -5.1838    1.3005 C.3       1 UNK         0.0000 
     14 H14         4.4073   -5.6557    2.2419 H         1 UNK         0.0000 
     15 C15         4.2559   -6.3002    0.2330 C.3       1 UNK         0.0000 
     16 O16         5.5899   -6.7759    0.1508 O.3       1 UNK         0.0000 
     17 C17         5.0936   -3.9873    1.1313 C.3       1 UNK         0.0000 
     18 C18         5.0768   -3.2838   -0.2437 C.3       1 UNK         0.0000 
     19 C19         5.4710   -1.7871   -0.2380 C.3       1 UNK         0.0000 
     20 C20         4.6155   -0.9592    0.7369 C.3       1 UNK         0.0000 
     21 N21         4.3077    0.4152    0.2915 N.am      1 UNK         0.0000 
     22 C22         3.0617    0.7844   -0.0797 C.2       1 UNK         0.0000 
     23 O23         2.1541   -0.0537   -0.1241 O.co2     1 UNK         0.0000 
     24 C24         2.7327    2.2448   -0.3920 C.ar      1 UNK         0.0000 
     25 C25         1.3928    2.7391   -0.3847 C.ar      1 UNK         0.0000 
     26 O26         0.3498    2.0626   -0.0865 O.co2     1 UNK         0.0000 
     27 C27         1.1256    4.0792   -0.6849 C.ar      1 UNK         0.0000 
     28 C28         2.1526    4.9593   -1.0096 C.ar      1 UNK         0.0000 
     29 C29         3.4602    4.5037   -1.0228 C.ar      1 UNK         0.0000 
     30 C30         3.7546    3.1699   -0.7235 C.ar      1 UNK         0.0000 
     31 F31         5.0571    2.8040   -0.7594 F         1 UNK         0.0000 
     32 H32        -1.7987   -5.2741    3.6668 H         1 UNK         0.0000 
     33 H33        -3.2548   -3.5821    2.6244 H         1 UNK         0.0000 
     34 H34        -2.3794   -2.2001    0.7889 H         1 UNK         0.0000 
     35 H35         2.4223   -4.8445    2.5471 H         1 UNK         0.0000 
     36 H36         3.5903   -7.1377    0.4594 H         1 UNK         0.0000 
     37 H37         3.9478   -5.9308   -0.7498 H         1 UNK         0.0000 
     38 H38         5.7278   -7.4700    0.8079 H         1 UNK         0.0000 
     39 H39         6.1149   -4.3418    1.3061 H         1 UNK         0.0000 
     40 H40         4.8931   -3.2933    1.9499 H         1 UNK         0.0000 
     41 H41         5.7404   -3.8231   -0.9223 H         1 UNK         0.0000 
     42 H42         4.0832   -3.3606   -0.6802 H         1 UNK         0.0000 
     43 H43         5.3334   -1.4021   -1.2574 H         1 UNK         0.0000 
     44 H44         6.5297   -1.6462    0.0123 H         1 UNK         0.0000 
     45 H45         3.6993   -1.5435    0.8771 H         1 UNK         0.0000 
     46 H46         5.0790   -0.9019    1.7250 H         1 UNK         0.0000 
     47 H47         5.0145    1.1340    0.4257 H         1 UNK         0.0000 
     48 H48         0.1091    4.4569   -0.6307 H         1 UNK         0.0000 
     49 H49         1.9201    5.9944   -1.2216 H         1 UNK         0.0000 
     50 H50         4.2543    5.1983   -1.2636 H         1 UNK         0.0000 
     51 F51        -0.5984   -3.0063    5.9053 F         1 UNK         0.0000 
     52 C52         0.1274   -2.4213    4.9151 C.ar      1 UNK         0.0000 
     53 C53         1.4201   -2.9039    4.6900 C.ar      1 UNK         0.0000 
     54 C54         2.2422   -2.3146    3.7416 C.ar      1 UNK         0.0000 
     55 C55         1.7434   -1.2689    2.9746 C.ar      1 UNK         0.0000 
     56 C56         0.4310   -0.8277    3.1144 C.ar      1 UNK         0.0000 
     57 O57         0.0419    0.0365    2.2586 O.co2     1 UNK         0.0000 
     58 C58        -0.3925   -1.3520    4.1448 C.ar      1 UNK         0.0000 
     59 C59        -1.7442   -0.7471    4.5014 C.2       1 UNK         0.0000 
     60 O60        -1.9060    0.4696    4.5593 O.2       1 UNK         0.0000 
     61 N61        -2.7357   -1.6069    4.8143 N.am      1 UNK         0.0000 
     62 C62        -4.1286   -1.2998    5.1977 C.3       1 UNK         0.0000 
     63 H63        -4.4378   -2.2344    5.6696 H         1 UNK         0.0000 
     64 C64        -4.2774   -0.2245    6.3073 C.3       1 UNK         0.0000 
     65 O65        -5.6117   -0.1497    6.7950 O.3       1 UNK         0.0000 
     66 C66        -5.0899   -1.1295    3.9864 C.3       1 UNK         0.0000 
     67 C67        -5.0657    0.2450    3.2776 C.3       1 UNK         0.0000 
     68 C68        -5.4534    0.2399    1.7777 C.3       1 UNK         0.0000 
     69 C69        -4.5843   -0.7271    0.9590 C.3       1 UNK         0.0000 
     70 N70        -4.2784   -0.2989   -0.4169 N.am      1 UNK         0.0000 
     71 C71        -3.0423    0.0935   -0.7975 C.2       1 UNK         0.0000 
     72 O72        -2.1387    0.1593    0.0510 O.co2     1 UNK         0.0000 
     73 C73        -2.7281    0.3750   -2.2591 C.ar      1 UNK         0.0000 
     74 C74        -1.3845    0.3144   -2.7474 C.ar      1 UNK         0.0000 
     75 O75        -0.2824   -0.0724   -2.0096 O.3       1 UNK         0.0000 
     76 C76        -1.1105    0.6326   -4.0843 C.ar      1 UNK         0.0000 
     77 C77        -2.1317    0.9925   -4.9546 C.ar      1 UNK         0.0000 
     78 C78        -3.4427    1.0190   -4.5089 C.ar      1 UNK         0.0000 
     79 C79        -3.7418    0.7207   -3.1783 C.ar      1 UNK         0.0000 
     80 F80        -5.0394    0.7623   -2.8098 F         1 UNK         0.0000 
     81 H81         1.7964   -3.7225    5.2831 H         1 UNK         0.0000 
     82 H82         3.2609   -2.6536    3.6122 H         1 UNK         0.0000 
     83 H83         2.3896   -0.7775    2.2717 H         1 UNK         0.0000 
     84 H84        -2.4419   -2.5704    4.8839 H         1 UNK         0.0000 
     85 H85        -3.5990   -0.4375    7.1377 H         1 UNK         0.0000 
     86 H86        -3.9775    0.7546    5.9242 H         1 UNK         0.0000 
     87 H87        -5.7471   -0.8195    7.4772 H         1 UNK         0.0000 
     88 H88        -6.1168   -1.2990    4.3274 H         1 UNK         0.0000 
     89 H89        -4.8825   -1.9473    3.2952 H         1 UNK         0.0000 
     90 H90        -5.7298    0.9297    3.8130 H         1 UNK         0.0000 
     91 H91        -4.0669    0.6787    3.3622 H         1 UNK         0.0000 
     92 H92        -5.3132    1.2602    1.3937 H         1 UNK         0.0000 
     93 H93        -6.5101   -0.0143    1.6287 H         1 UNK         0.0000 
     94 H94        -3.6731   -0.8476    1.5464 H         1 UNK         0.0000 
     95 H95        -5.0356   -1.7201    0.9152 H         1 UNK         0.0000 
     96 H96        -5.0115   -0.3865   -1.1122 H         1 UNK         0.0000 
     97 H97         0.4631   -0.2264   -2.6197 H         1 UNK         0.0000 
     98 H98        -0.0988    0.5836   -4.4599 H         1 UNK         0.0000 
     99 H99        -1.8971    1.2206   -5.9847 H         1 UNK         0.0000 
    100 H100       -4.2361    1.2719   -5.1999 H         1 UNK         0.0000 
@<TRIPOS>BOND
     1    1    8 nc   
     2    1   23 nc   
     3    1   26 nc   
     4    1   57 nc   
     5    1   72 nc   
     6    1   75 nc   
     7    2    3 1    
     8    3    4 ar   
     9    3    9 ar   
    10    4   32 1    
    11    4    5 ar   
    12    5   33 1    
    13    5    6 ar   
    14    6    7 ar   
    15    6   34 1    
    16    7    9 ar   
    17    7    8 1    
    18    9   10 1    
    19   10   12 am   BACKBONE|DICT|INTERRES
    20   10   11 2    
    21   12   35 1    
    22   12   13 1    
    23   13   14 1    
    24   13   15 1    
    25   13   17 1    
    26   15   36 1    
    27   15   16 1    
    28   15   37 1    
    29   16   38 1    
    30   17   39 1    
    31   17   40 1    
    32   17   18 1    
    33   18   19 1    
    34   18   41 1    
    35   18   42 1    
    36   19   44 1    
    37   19   20 1    
    38   19   43 1    
    39   20   46 1    
    40   20   21 1    
    41   20   45 1    
    42   21   47 1    
    43   21   22 am   BACKBONE|DICT|INTERRES
    44   22   23 2    
    45   22   24 1    
    46   24   25 ar   
    47   24   30 ar   
    48   25   26 1    
    49   25   27 ar   
    50   27   48 1    
    51   27   28 ar   
    52   28   29 ar   
    53   28   49 1    
    54   29   30 ar   
    55   29   50 1    
    56   30   31 1    
    57   51   52 1    
    58   52   53 ar   
    59   52   58 ar   
    60   53   81 1    
    61   53   54 ar   
    62   54   55 ar   
    63   54   82 1    
    64   55   56 ar   
    65   55   83 1    
    66   56   58 ar   
    67   56   57 1    
    68   58   59 1    
    69   59   61 am   BACKBONE|DICT|INTERRES
    70   59   60 2    
    71   61   84 1    
    72   61   62 1    
    73   62   63 1    
    74   62   64 1    
    75   62   66 1    
    76   64   65 1    
    77   64   85 1    
    78   64   86 1    
    79   65   87 1    
    80   66   88 1    
    81   66   67 1    
    82   66   89 1    
    83   67   90 1    
    84   67   68 1    
    85   67   91 1    
    86   68   69 1    
    87   68   92 1    
    88   68   93 1    
    89   69   95 1    
    90   69   94 1    
    91   69   70 1    
    92   70   71 am   BACKBONE|DICT|INTERRES
    93   70   96 1    
    94   71   72 2    
    95   71   73 1    
    96   73   74 ar   
    97   73   79 ar   
    98   74   75 1    
    99   74   76 ar   
   100   75   97 1    
   101   76   77 ar   
   102   76   98 1    
   103   77   78 ar   
   104   77   99 1    
   105   78   79 ar   
   106   78  100 1    
   107   79   80 1    
@<TRIPOS>SUBSTRUCTURE
     1 UNK         1 GROUP             0       ****    0 ROOT    
