@<TRIPOS>MOLECULE
104_c3
115   120    1
SMALL
USER_CHARGES


@<TRIPOS>ATOM
      1 Fe1        -0.0005    2.3402    0.2723 Fe        1 UNK         0.0000 
      2 O2          0.3669    1.0314   -1.4398 O.co2     1 UNK         0.0000 
      3 N3         -0.6268    1.0628   -2.3254 N.am      1 UNK         0.0000 
      4 C4         -0.4778    0.1942   -3.4947 C.3       1 UNK         0.0000 
      5 C5         -0.3514   -1.2941   -3.0937 C.3       1 UNK         0.0000 
      6 C6         -0.1757   -2.2587   -4.2808 C.3       1 UNK         0.0000 
      7 C7          0.0102   -3.7239   -3.8467 C.3       1 UNK         0.0000 
      8 N8         -1.1828   -4.2479   -3.1832 N.am      1 UNK         0.0000 
      9 C9         -1.3628   -5.4644   -2.6678 C.2       1 UNK         0.0000 
     10 O10        -2.4724   -5.7629   -2.2524 O.2       1 UNK         0.0000 
     11 C11        -0.1889   -6.4595   -2.6462 C.3       1 UNK         0.0000 
     12 C12        -0.5036   -7.9131   -2.2004 C.3       1 UNK         0.0000 
     13 C13        -0.6696   -8.1353   -0.6746 C.2       1 UNK         0.0000 
     14 O14        -1.6960   -7.7304   -0.1312 O.2       1 UNK         0.0000 
     15 N15         0.2482   -8.8549    0.0286 N.am      1 UNK         0.0000 
     16 O16         1.4724   -9.1782   -0.5942 O.3       1 UNK         0.0000 
     17 C17         0.1478   -9.2571    1.4361 C.3       1 UNK         0.0000 
     18 C18         1.1333   -8.5406    2.3811 C.3       1 UNK         0.0000 
     19 C19         0.7612   -7.0857    2.7368 C.3       1 UNK         0.0000 
     20 C20         1.7765   -6.4745    3.7306 C.3       1 UNK         0.0000 
     21 C21         1.2448   -5.3007    4.5717 C.3       1 UNK         0.0000 
     22 N22         0.9152   -4.1155    3.7833 N.am      1 UNK         0.0000 
     23 C23         1.4605   -2.9035    3.9588 C.2       1 UNK         0.0000 
     24 O24         2.3628   -2.6873    4.7644 O.2       1 UNK         0.0000 
     25 C25         0.8757   -1.7791    3.1047 C.3       1 UNK         0.0000 
     26 C26         1.3586   -0.3595    3.5130 C.3       1 UNK         0.0000 
     27 C27         0.6714    0.6954    2.6515 C.2       1 UNK         0.0000 
     28 O28         0.8297    0.7645    1.4229 O.co2     1 UNK         0.0000 
     29 N29        -0.1761    1.6387    3.1222 N.am      1 UNK         0.0000 
     30 O30        -0.7513    2.4065    2.2079 O.co2     1 UNK         0.0000 
     31 C31        -0.3461    2.0347    4.5404 C.3       1 UNK         0.0000 
     32 C32        -0.9644    3.4441    4.7359 C.3       1 UNK         0.0000 
     33 C33        -1.0061    3.9900    6.1732 C.3       1 UNK         0.0000 
     34 C34        -1.7271    5.3586    6.2721 C.3       1 UNK         0.0000 
     35 C35        -1.0993    6.5199    5.4610 C.3       1 UNK         0.0000 
     36 N36        -1.4845    6.5493    4.0400 N.am      1 UNK         0.0000 
     37 C37        -0.6381    6.7049    3.0109 C.2       1 UNK         0.0000 
     38 O38         0.5746    6.8131    3.1614 O.2       1 UNK         0.0000 
     39 C39        -1.2539    6.7680    1.6047 C.3       1 UNK         0.0000 
     40 C40        -0.2370    6.6046    0.4332 C.3       1 UNK         0.0000 
     41 C41         0.2219    5.1547    0.2386 C.2       1 UNK         0.0000 
     42 O42        -0.5713    4.2169    0.1868 O.co2     1 UNK         0.0000 
     43 N43         1.4990    4.7412    0.1019 N.am      1 UNK         0.0000 
     44 O44         1.7249    3.4225    0.0857 O.co2     1 UNK         0.0000 
     45 C45         2.6363    5.6070   -0.2498 C.3       1 UNK         0.0000 
     46 C46         2.4748    6.3946   -1.5831 C.3       1 UNK         0.0000 
     47 C47         1.8852    5.5908   -2.7721 C.3       1 UNK         0.0000 
     48 C48         1.3854    6.4841   -3.9355 C.3       1 UNK         0.0000 
     49 C49         0.4200    5.7738   -4.9119 C.3       1 UNK         0.0000 
     50 N50        -0.8133    5.3246   -4.2467 N.am      1 UNK         0.0000 
     51 C51        -1.2951    4.0720   -4.2673 C.2       1 UNK         0.0000 
     52 O52        -0.7928    3.1761   -4.9361 O.2       1 UNK         0.0000 
     53 C53        -2.5319    3.7833   -3.4005 C.3       1 UNK         0.0000 
     54 C54        -2.7646    2.2912   -2.9925 C.3       1 UNK         0.0000 
     55 C55        -1.7089    1.7982   -1.9941 C.2       1 UNK         0.0000 
     56 O56        -1.6615    2.1979   -0.8285 O.co2     1 UNK         0.0000 
     57 H57        -1.3030    0.3013   -4.1976 H         1 UNK         0.0000 
     58 H58         0.3954    0.5163   -4.0692 H         1 UNK         0.0000 
     59 H59         0.5057   -1.4070   -2.4252 H         1 UNK         0.0000 
     60 H60        -1.2328   -1.5721   -2.5127 H         1 UNK         0.0000 
     61 H61         0.6994   -1.9534   -4.8574 H         1 UNK         0.0000 
     62 H62        -1.0252   -2.1768   -4.9628 H         1 UNK         0.0000 
     63 H63         0.8433   -3.7795   -3.1410 H         1 UNK         0.0000 
     64 H64         0.2797   -4.3347   -4.7117 H         1 UNK         0.0000 
     65 H65        -1.9975   -3.6569   -3.1387 H         1 UNK         0.0000 
     66 H66         0.7026   -6.0656   -2.1571 H         1 UNK         0.0000 
     67 H67         0.0927   -6.5346   -3.6964 H         1 UNK         0.0000 
     68 H68        -1.3441   -8.3264   -2.7570 H         1 UNK         0.0000 
     69 H69         0.3248   -8.5228   -2.5548 H         1 UNK         0.0000 
     70 H70         1.4465  -10.1378   -0.6660 H         1 UNK         0.0000 
     71 H71        -0.8708   -9.1100    1.8058 H         1 UNK         0.0000 
     72 H72         0.3111  -10.3328    1.4893 H         1 UNK         0.0000 
     73 H73         1.1607   -9.1110    3.3110 H         1 UNK         0.0000 
     74 H74         2.1477   -8.5819    1.9793 H         1 UNK         0.0000 
     75 H75        -0.2410   -7.0652    3.1717 H         1 UNK         0.0000 
     76 H76         0.7107   -6.4737    1.8338 H         1 UNK         0.0000 
     77 H77         2.6851   -6.1716    3.2063 H         1 UNK         0.0000 
     78 H78         2.1002   -7.2440    4.4337 H         1 UNK         0.0000 
     79 H79         1.9479   -5.0952    5.3846 H         1 UNK         0.0000 
     80 H80         0.3173   -5.6042    5.0646 H         1 UNK         0.0000 
     81 H81         0.1798   -4.2075    3.1018 H         1 UNK         0.0000 
     82 H82        -0.2086   -1.8494    3.2052 H         1 UNK         0.0000 
     83 H83         1.1668   -2.0005    2.0777 H         1 UNK         0.0000 
     84 H84         2.4258   -0.2331    3.3291 H         1 UNK         0.0000 
     85 H85         1.1501   -0.1536    4.5636 H         1 UNK         0.0000 
     86 H86         0.6206    2.0174    5.0438 H         1 UNK         0.0000 
     87 H87        -0.9515    1.2944    5.0609 H         1 UNK         0.0000 
     88 H88        -0.3839    4.1373    4.1281 H         1 UNK         0.0000 
     89 H89        -1.9813    3.4326    4.3362 H         1 UNK         0.0000 
     90 H90         0.0118    4.0790    6.5612 H         1 UNK         0.0000 
     91 H91        -1.5153    3.2729    6.8223 H         1 UNK         0.0000 
     92 H92        -1.7405    5.6545    7.3224 H         1 UNK         0.0000 
     93 H93        -2.7771    5.2446    6.0001 H         1 UNK         0.0000 
     94 H94        -0.0135    6.4615    5.5739 H         1 UNK         0.0000 
     95 H95        -1.3630    7.4804    5.9147 H         1 UNK         0.0000 
     96 H96        -2.4669    6.4992    3.8278 H         1 UNK         0.0000 
     97 H97        -2.1169    6.1118    1.4846 H         1 UNK         0.0000 
     98 H98        -1.6744    7.7719    1.5375 H         1 UNK         0.0000 
     99 H99         0.5725    7.3295    0.5130 H         1 UNK         0.0000 
    100 H100       -0.7342    6.8573   -0.5030 H         1 UNK         0.0000 
    101 H101        3.5415    4.9980   -0.3281 H         1 UNK         0.0000 
    102 H102        2.8236    6.2946    0.5765 H         1 UNK         0.0000 
    103 H103        3.4414    6.8151   -1.8652 H         1 UNK         0.0000 
    104 H104        1.8485    7.2665   -1.3917 H         1 UNK         0.0000 
    105 H105        2.6218    4.8674   -3.1289 H         1 UNK         0.0000 
    106 H106        1.0508    4.9856   -2.4231 H         1 UNK         0.0000 
    107 H107        2.2466    6.8599   -4.4933 H         1 UNK         0.0000 
    108 H108        0.8844    7.3699   -3.5392 H         1 UNK         0.0000 
    109 H109        0.1740    6.4218   -5.7560 H         1 UNK         0.0000 
    110 H110        0.9549    4.9247   -5.3453 H         1 UNK         0.0000 
    111 H111       -1.3671    6.0367   -3.8005 H         1 UNK         0.0000 
    112 H112       -2.6030    4.4354   -2.5302 H         1 UNK         0.0000 
    113 H113       -3.3777    4.0911   -4.0127 H         1 UNK         0.0000 
    114 H114       -3.7244    2.2345   -2.4768 H         1 UNK         0.0000 
    115 H115       -2.9265    1.6493   -3.8560 H         1 UNK         0.0000 
@<TRIPOS>BOND
     1    1    2 nc   
     2    1   28 nc   
     3    1   30 nc   
     4    1   42 nc   
     5    1   44 nc   
     6    1   56 nc   
     7    2    3 1    
     8    3   55 am   BACKBONE|DICT|INTERRES
     9    3    4 1    
    10    4    5 1    
    11    4   57 1    
    12    4   58 1    
    13    5   60 1    
    14    5   59 1    
    15    5    6 1    
    16    6    7 1    
    17    6   61 1    
    18    6   62 1    
    19    7    8 1    
    20    7   63 1    
    21    7   64 1    
    22    8   65 1    
    23    8    9 am   BACKBONE|DICT|INTERRES
    24    9   10 2    
    25    9   11 1    
    26   11   12 1    
    27   11   66 1    
    28   11   67 1    
    29   12   13 1    
    30   12   68 1    
    31   12   69 1    
    32   13   14 2    
    33   13   15 am   BACKBONE|DICT|INTERRES
    34   15   17 1    
    35   15   16 1    
    36   16   70 1    
    37   17   72 1    
    38   17   71 1    
    39   17   18 1    
    40   18   19 1    
    41   18   73 1    
    42   18   74 1    
    43   19   75 1    
    44   19   20 1    
    45   19   76 1    
    46   20   21 1    
    47   20   78 1    
    48   20   77 1    
    49   21   80 1    
    50   21   79 1    
    51   21   22 1    
    52   22   23 am   BACKBONE|DICT|INTERRES
    53   22   81 1    
    54   23   24 2    
    55   23   25 1    
    56   25   82 1    
    57   25   26 1    
    58   25   83 1    
    59   26   85 1    
    60   26   27 1    
    61   26   84 1    
    62   27   28 2    
    63   27   29 am   BACKBONE|DICT|INTERRES
    64   29   31 1    
    65   29   30 1    
    66   31   32 1    
    67   31   86 1    
    68   31   87 1    
    69   32   33 1    
    70   32   88 1    
    71   32   89 1    
    72   33   34 1    
    73   33   90 1    
    74   33   91 1    
    75   34   92 1    
    76   34   35 1    
    77   34   93 1    
    78   35   94 1    
    79   35   95 1    
    80   35   36 1    
    81   36   37 am   BACKBONE|DICT|INTERRES
    82   36   96 1    
    83   37   38 2    
    84   37   39 1    
    85   39   40 1    
    86   39   97 1    
    87   39   98 1    
    88   40   99 1    
    89   40   41 1    
    90   40  100 1    
    91   41   42 2    
    92   41   43 am   BACKBONE|DICT|INTERRES
    93   43   44 1    
    94   43   45 1    
    95   45  102 1    
    96   45   46 1    
    97   45  101 1    
    98   46  104 1    
    99   46   47 1    
   100   46  103 1    
   101   47  106 1    
   102   47   48 1    
   103   47  105 1    
   104   48  108 1    
   105   48   49 1    
   106   48  107 1    
   107   49   50 1    
   108   49  109 1    
   109   49  110 1    
   110   50   51 am   BACKBONE|DICT|INTERRES
   111   50  111 1    
   112   51   53 1    
   113   51   52 2    
   114   53   54 1    
   115   53  112 1    
   116   53  113 1    
   117   54  114 1    
   118   54   55 1    
   119   54  115 1    
   120   55   56 2    
@<TRIPOS>SUBSTRUCTURE
     1 UNK         1 GROUP             0       ****    0 ROOT    
