@<TRIPOS>MOLECULE
050_c1
100   108    1
SMALL
USER_CHARGES


@<TRIPOS>ATOM
      1 Fe1         0.2394    0.9696    1.1664 Fe        1 UNK         0.0000 
      2 O2         -0.8630   -0.3561    1.5763 O.co2     1 UNK         0.0000 
      3 C3         -0.5365   -1.6637    1.5578 C.ar      1 UNK         0.0000 
      4 C4         -1.3790   -2.7555    1.3136 C.ar      1 UNK         0.0000 
      5 C5         -0.8051   -4.0535    1.1590 C.ar      1 UNK         0.0000 
      6 C6          0.6210   -4.1374    1.2592 C.ar      1 UNK         0.0000 
      7 C7          1.4029   -3.0097    1.5633 C.ar      1 UNK         0.0000 
      8 C8          0.7564   -1.7975    1.7172 C.ar      1 UNK         0.0000 
      9 O9          1.2947   -0.6052    1.9393 O.co2     1 UNK         0.0000 
     10 C10         1.2970   -5.4093    0.9033 C.3       1 UNK         0.0000 
     11 C11         0.5703   -5.9638   -0.3227 C.3       1 UNK         0.0000 
     12 N12         0.4588   -5.0069   -1.4348 N.am      1 UNK         0.0000 
     13 C13         1.0960   -5.1382   -2.6326 C.2       1 UNK         0.0000 
     14 O14         1.9461   -6.0047   -2.7845 O.2       1 UNK         0.0000 
     15 C15         0.6878   -4.2549   -3.8142 C.3       1 UNK         0.0000 
     16 N16         0.5510   -2.8412   -3.4668 N.am      1 UNK         0.0000 
     17 C17         1.5340   -2.0109   -3.0128 C.2       1 UNK         0.0000 
     18 O18         2.6752   -2.4214   -2.8591 O.2       1 UNK         0.0000 
     19 C19         1.1783   -0.5808   -2.6017 C.3       1 UNK         0.0000 
     20 C20         1.3901   -0.5102   -1.0840 C.3       1 UNK         0.0000 
     21 O21         1.1528    0.7529   -0.4999 O.co2     1 UNK         0.0000 
     22 N22         1.9872    0.4204   -3.2846 N.am      1 UNK         0.0000 
     23 C23         1.6933    1.7620   -3.3305 C.2       1 UNK         0.0000 
     24 O24         2.4940    2.5066   -3.8745 O.2       1 UNK         0.0000 
     25 C25         0.3908    2.3754   -2.7792 C.3       1 UNK         0.0000 
     26 C26        -0.4925    2.9809   -3.9035 C.3       1 UNK         0.0000 
     27 O27        -0.8077    1.9729   -4.8310 O.3       1 UNK         0.0000 
     28 C28         0.1081    4.1837   -4.6447 C.3       1 UNK         0.0000 
     29 N29         0.6506    3.3848   -1.7479 N.am      1 UNK         0.0000 
     30 C30         0.0489    3.3599   -0.5136 C.2       1 UNK         0.0000 
     31 O31        -0.6768    2.4099   -0.1961 O.co2     1 UNK         0.0000 
     32 C32         0.1760    4.4877    0.5060 C.3       1 UNK         0.0000 
     33 C33         1.1880    5.6561    0.3452 C.3       1 UNK         0.0000 
     34 O34         1.0898    6.2498   -0.9233 O.3       1 UNK         0.0000 
     35 C35         2.6906    5.4099    0.7117 C.3       1 UNK         0.0000 
     36 C36         2.9095    4.9523    2.1983 C.3       1 UNK         0.0000 
     37 O37         3.9754    5.6762    2.7630 O.3       1 UNK         0.0000 
     38 C38         3.2064    3.4335    2.4769 C.3       1 UNK         0.0000 
     39 N39         2.4771    3.0693    3.6684 N.2       1 UNK         0.0000 
     40 C40         1.4823    2.3423    3.3119 C.2       1 UNK         0.0000 
     41 O41         1.4843    1.9785    2.0111 O.3       1 UNK         0.0000 
     42 C42         2.6578    2.4435    1.4574 C.3       1 UNK         0.0000 
     43 C43         0.3446    2.0014    4.1757 C.ar      1 UNK         0.0000 
     44 C44        -0.8729    1.6604    3.5486 C.ar      1 UNK         0.0000 
     45 O45        -0.9556    1.6374    2.1678 O.co2     1 UNK         0.0000 
     46 C46        -1.9989    1.3772    4.3379 C.ar      1 UNK         0.0000 
     47 C47        -1.9117    1.4272    5.7321 C.ar      1 UNK         0.0000 
     48 C48        -0.7069    1.7776    6.3487 C.ar      1 UNK         0.0000 
     49 C49         0.4184    2.0760    5.5742 C.ar      1 UNK         0.0000 
     50 C50         1.5361   -4.4680   -5.0834 C.3       1 UNK         0.0000 
     51 O51         2.8766   -4.1305   -4.8655 O.3       1 UNK         0.0000 
     52 C52        -0.8521   -6.3454    0.1462 C.3       1 UNK         0.0000 
     53 N53        -1.6034   -5.2534    0.8651 N.4       1 UNK         0.0000 
     54 C54        -2.0162   -5.7523    2.1880 C.3       1 UNK         0.0000 
     55 C55        -2.8374   -4.9559    0.1151 C.3       1 UNK         0.0000 
     56 H56        -2.4324   -2.5580    1.2088 H         1 UNK         0.0000 
     57 H57         2.4826   -3.0639    1.6287 H         1 UNK         0.0000 
     58 H58         2.3746   -5.2431    0.6845 H         1 UNK         0.0000 
     59 H59         1.2234   -6.1381    1.7405 H         1 UNK         0.0000 
     60 H60         1.1009   -6.8831   -0.6559 H         1 UNK         0.0000 
     61 H61        -0.2028   -4.2227   -1.3420 H         1 UNK         0.0000 
     62 H62        -0.3368   -4.6004   -4.0820 H         1 UNK         0.0000 
     63 H63        -0.4032   -2.4560   -3.5460 H         1 UNK         0.0000 
     64 H64         0.1102   -0.4250   -2.8553 H         1 UNK         0.0000 
     65 H65         2.4141   -0.8497   -0.7997 H         1 UNK         0.0000 
     66 H66         0.6703   -1.2355   -0.6797 H         1 UNK         0.0000 
     67 H67         2.8411    0.0997   -3.7684 H         1 UNK         0.0000 
     68 H68        -0.2512    1.5853   -2.3569 H         1 UNK         0.0000 
     69 H69        -1.4273    3.3333   -3.4031 H         1 UNK         0.0000 
     70 H70        -1.7079    2.1805   -5.1954 H         1 UNK         0.0000 
     71 H71         1.0216    3.9058   -5.2056 H         1 UNK         0.0000 
     72 H72        -0.6313    4.5639   -5.3810 H         1 UNK         0.0000 
     73 H73         0.3390    5.0106   -3.9428 H         1 UNK         0.0000 
     74 H74         1.2513    4.1761   -2.0049 H         1 UNK         0.0000 
     75 H75         0.3222    4.0649    1.5136 H         1 UNK         0.0000 
     76 H76        -0.8395    4.9391    0.5360 H         1 UNK         0.0000 
     77 H77         0.8699    6.4136    1.1030 H         1 UNK         0.0000 
     78 H78         0.2511    6.7812   -0.9349 H         1 UNK         0.0000 
     79 H79         3.2714    4.8123   -0.0194 H         1 UNK         0.0000 
     80 H80         3.1273    6.4304    0.6251 H         1 UNK         0.0000 
     81 H81         1.9793    5.2389    2.7471 H         1 UNK         0.0000 
     82 H82         3.6223    6.5627    3.0395 H         1 UNK         0.0000 
     83 H83         4.3044    3.2602    2.5363 H         1 UNK         0.0000 
     84 H84         2.5385    2.8729    0.4569 H         1 UNK         0.0000 
     85 H85         3.3353    1.5649    1.3743 H         1 UNK         0.0000 
     86 H86        -2.9402    1.1153    3.8714 H         1 UNK         0.0000 
     87 H87        -2.7817    1.2015    6.3353 H         1 UNK         0.0000 
     88 H88        -0.6472    1.8231    7.4284 H         1 UNK         0.0000 
     89 H89         1.3429    2.3550    6.0640 H         1 UNK         0.0000 
     90 H90         1.1156   -3.8404   -5.9010 H         1 UNK         0.0000 
     91 H91         1.4702   -5.5394   -5.3800 H         1 UNK         0.0000 
     92 H92         3.3444   -4.2936   -5.7251 H         1 UNK         0.0000 
     93 H93        -1.3853   -6.7054   -0.7649 H         1 UNK         0.0000 
     94 H94        -0.7491   -7.2533    0.7876 H         1 UNK         0.0000 
     95 H95        -2.6499   -6.6646    2.0999 H         1 UNK         0.0000 
     96 H96        -2.6073   -4.9916    2.7503 H         1 UNK         0.0000 
     97 H97        -1.1334   -6.0181    2.8146 H         1 UNK         0.0000 
     98 H98        -2.5958   -4.5252   -0.8811 H         1 UNK         0.0000 
     99 H99        -3.5195   -4.2617    0.6462 H         1 UNK         0.0000 
    100 H100       -3.4391   -5.8794   -0.0483 H         1 UNK         0.0000 
@<TRIPOS>BOND
     1    1    2 nc   
     2    1    9 nc   
     3    1   21 nc   
     4    1   31 nc   
     5    1   41 nc   
     6    1   45 nc   
     7    2    3 1    
     8    3    8 ar   
     9    3    4 ar   
    10    4    5 ar   
    11    4   56 1    
    12    5    6 ar   
    13    5   53 1    
    14    6    7 ar   
    15    6   10 1    
    16    7   57 1    
    17    7    8 ar   
    18    8    9 1    
    19   10   59 1    
    20   10   11 1    
    21   10   58 1    
    22   11   60 1    
    23   11   52 1    
    24   11   12 1    
    25   12   61 1    
    26   12   13 am   BACKBONE|DICT|INTERRES
    27   13   14 2    
    28   13   15 1    
    29   15   62 1    
    30   15   16 1    
    31   15   50 1    
    32   16   17 am   BACKBONE|DICT|INTERRES
    33   16   63 1    
    34   17   18 2    
    35   17   19 1    
    36   19   64 1    
    37   19   20 1    
    38   19   22 1    
    39   20   65 1    
    40   20   66 1    
    41   20   21 1    
    42   22   23 am   BACKBONE|DICT|INTERRES
    43   22   67 1    
    44   23   25 1    
    45   23   24 2    
    46   25   68 1    
    47   25   29 1    
    48   25   26 1    
    49   26   69 1    
    50   26   27 1    
    51   26   28 1    
    52   27   70 1    
    53   28   73 1    
    54   28   71 1    
    55   28   72 1    
    56   29   30 am   BACKBONE|DICT|INTERRES
    57   29   74 1    
    58   30   31 2    
    59   30   32 1    
    60   32   76 1    
    61   32   75 1    
    62   32   33 1    
    63   33   35 1    
    64   33   77 1    
    65   33   34 1    
    66   34   78 1    
    67   35   36 1    
    68   35   79 1    
    69   35   80 1    
    70   36   38 1    
    71   36   81 1    
    72   36   37 1    
    73   37   82 1    
    74   38   83 1    
    75   38   39 1    
    76   38   42 1    
    77   39   40 2    
    78   40   43 1    
    79   40   41 1    
    80   41   42 1    
    81   42   84 1    
    82   42   85 1    
    83   43   49 ar   
    84   43   44 ar   
    85   44   46 ar   
    86   44   45 1    
    87   46   47 ar   
    88   46   86 1    
    89   47   87 1    
    90   47   48 ar   
    91   48   88 1    
    92   48   49 ar   
    93   49   89 1    
    94   50   51 1    
    95   50   90 1    
    96   50   91 1    
    97   51   92 1    
    98   52   94 1    
    99   52   53 1    
   100   52   93 1    
   101   53   54 1    
   102   53   55 1    
   103   54   96 1    
   104   54   97 1    
   105   54   95 1    
   106   55   99 1    
   107   55   98 1    
   108   55  100 1    
@<TRIPOS>SUBSTRUCTURE
     1 UNK         1 GROUP             0       ****    0 ROOT    
