@<TRIPOS>MOLECULE
281_c1
168   181    1
SMALL
USER_CHARGES


@<TRIPOS>ATOM
      1 Fe1         0.0079    0.0233   -0.0151 Fe        1 UNK         0.0000 
      2 C2          1.9954    1.7744   -3.7036 C.ar      1 UNK         0.0000 
      3 C3          1.5694    2.4066   -2.5360 C.ar      1 UNK         0.0000 
      4 C4          1.5692    1.7173   -1.3218 C.ar      1 UNK         0.0000 
      5 O5          0.9085    2.2097   -0.3395 O.co2     1 UNK         0.0000 
      6 C6          2.1663    0.4420   -1.2585 C.ar      1 UNK         0.0000 
      7 O7          2.1496   -0.2338   -0.1892 O.co2     1 UNK         0.0000 
      8 C8          2.7130   -0.1507   -2.4083 C.ar      1 UNK         0.0000 
      9 Cl9         3.5291   -1.6966   -2.3084 Cl        1 UNK         0.0000 
     10 C10         2.4880    0.4631   -3.6532 C.ar      1 UNK         0.0000 
     11 C11         2.7082   -0.2876   -4.9363 C.2       1 UNK         0.0000 
     12 O12         3.4260    0.1455   -5.8277 O.2       1 UNK         0.0000 
     13 N13         2.0377   -1.4387   -5.1458 N.am      1 UNK         0.0000 
     14 C14         0.9919   -2.0817   -4.3288 C.3       1 UNK         0.0000 
     15 C15         1.2424   -3.6066   -4.2309 C.3       1 UNK         0.0000 
     16 N16         0.3271   -4.4472   -3.2559 N.4       1 UNK         0.0000 
     17 C17        -1.1833   -4.0533   -3.3198 C.3       1 UNK         0.0000 
     18 C18        -1.9428   -5.3043   -3.7706 C.3       1 UNK         0.0000 
     19 C19        -0.9532   -6.0150   -4.6714 C.3       1 UNK         0.0000 
     20 C20         0.3351   -5.8890   -3.8757 C.3       1 UNK         0.0000 
     21 C21         0.8832   -4.4233   -1.7879 C.3       1 UNK         0.0000 
     22 C22         0.1217   -5.2504   -0.7005 C.2       1 UNK         0.0000 
     23 C23        -0.7262   -4.6011    0.4352 C.3       1 UNK         0.0000 
     24 C24        -1.0062   -3.0937    0.6092 C.2       1 UNK         0.0000 
     25 O25        -0.3927   -2.2314   -0.0832 O.co2     1 UNK         0.0000 
     26 O26        -1.7617   -2.7887    1.5526 O.co2     1 UNK         0.0000 
     27 C27         0.3581   -6.5956   -0.6377 C.2       1 UNK         0.0000 
     28 S28        -0.4096   -7.8353    0.4333 S.3       1 UNK         0.0000 
     29 C29        -1.5397   -6.8017    1.4262 C.3       1 UNK         0.0000 
     30 H30        -1.0797   -6.6445    2.4065 H         1 UNK         0.0000 
     31 N31        -1.8194   -5.5383    0.7330 N.am      1 UNK         0.0000 
     32 C32        -3.0702   -7.0790    1.4121 C.3       1 UNK         0.0000 
     33 H33        -3.4515   -7.7684    0.6568 H         1 UNK         0.0000 
     34 C34        -3.1901   -5.5609    0.9950 C.2       1 UNK         0.0000 
     35 O35        -4.0959   -4.7328    0.8760 O.2       1 UNK         0.0000 
     36 N36        -3.6158   -7.5292    2.7148 N.am      1 UNK         0.0000 
     37 C37        -4.8769   -7.3695    3.1704 C.2       1 UNK         0.0000 
     38 O38        -5.7185   -6.8180    2.4583 O.2       1 UNK         0.0000 
     39 C39        -5.1769   -7.9292    4.5236 C.2       1 UNK         0.0000 
     40 N40        -6.4199   -8.2325    4.6682 N.2       1 UNK         0.0000 
     41 O41        -6.8088   -8.6666    5.9564 O.3       1 UNK         0.0000 
     42 C42        -8.2058   -9.0394    6.0599 C.3       1 UNK         0.0000 
     43 C43        -8.1698  -10.5413    6.4090 C.3       1 UNK         0.0000 
     44 C44        -9.0812   -8.8500    4.7790 C.3       1 UNK         0.0000 
     45 C45        -8.8026   -8.2272    7.2524 C.2       1 UNK         0.0000 
     46 O46        -9.8685   -7.6152    7.2216 O.2       1 UNK         0.0000 
     47 O47        -8.0473   -8.2712    8.3793 O.3       1 UNK         0.0000 
     48 C48        -4.0904   -8.1132    5.5455 C.2       1 UNK         0.0000 
     49 N49        -4.2018   -9.0467    6.4928 N.2       1 UNK         0.0000 
     50 C50        -3.2138   -9.0648    7.3331 C.2       1 UNK         0.0000 
     51 N51        -3.1805   -9.8940    8.4216 N.pl3     1 UNK         0.0000 
     52 S52        -1.9432   -7.9412    6.9810 S.3       1 UNK         0.0000 
     53 C53        -2.8782   -7.3907    5.6135 C.2       1 UNK         0.0000 
     54 H54         1.8899    2.2907   -4.6509 H         1 UNK         0.0000 
     55 H55         1.1539    3.4030   -2.5886 H         1 UNK         0.0000 
     56 H56         2.2510   -1.8384   -6.0505 H         1 UNK         0.0000 
     57 H57         0.0601   -1.8745   -4.8546 H         1 UNK         0.0000 
     58 H58         0.8748   -1.6485   -3.3374 H         1 UNK         0.0000 
     59 H59         1.0831   -4.0153   -5.2328 H         1 UNK         0.0000 
     60 H60         2.2725   -3.8379   -3.9416 H         1 UNK         0.0000 
     61 H61        -1.3167   -3.2963   -4.0876 H         1 UNK         0.0000 
     62 H62        -1.5263   -3.6447   -2.3659 H         1 UNK         0.0000 
     63 H63        -2.8611   -5.0555   -4.3051 H         1 UNK         0.0000 
     64 H64        -2.2259   -5.9138   -2.9078 H         1 UNK         0.0000 
     65 H65        -1.2315   -7.0574   -4.8372 H         1 UNK         0.0000 
     66 H66        -0.8610   -5.5327   -5.6457 H         1 UNK         0.0000 
     67 H67         1.2461   -6.0858   -4.4467 H         1 UNK         0.0000 
     68 H68         0.2739   -6.6465   -3.1118 H         1 UNK         0.0000 
     69 H69         1.0418   -3.3830   -1.5235 H         1 UNK         0.0000 
     70 H70         1.8909   -4.8233   -1.8940 H         1 UNK         0.0000 
     71 H71        -3.0180   -8.1123    3.2789 H         1 UNK         0.0000 
     72 H72        -9.1642  -10.9314    6.6403 H         1 UNK         0.0000 
     73 H73        -7.5148  -10.7378    7.2612 H         1 UNK         0.0000 
     74 H74        -7.7796  -11.1139    5.5652 H         1 UNK         0.0000 
     75 H75        -8.6827   -9.4204    3.9409 H         1 UNK         0.0000 
     76 H76        -9.1220   -7.8048    4.4699 H         1 UNK         0.0000 
     77 H77       -10.1064   -9.1911    4.9372 H         1 UNK         0.0000 
     78 H78        -2.4494   -9.8793    9.1207 H         1 UNK         0.0000 
     79 H79        -3.9751  -10.4949    8.6059 H         1 UNK         0.0000 
     80 H80        -2.5219   -6.5701    4.9984 H         1 UNK         0.0000 
     81 C81        -2.0939    3.7893   -1.7894 C.ar      1 UNK         0.0000 
     82 C82        -1.6441    2.6481   -2.4439 C.ar      1 UNK         0.0000 
     83 C83        -1.6084    1.4347   -1.7603 C.ar      1 UNK         0.0000 
     84 O84        -0.8240    0.4166   -2.2370 O.3       1 UNK         0.0000 
     85 C85        -2.1806    1.3209   -0.4928 C.ar      1 UNK         0.0000 
     86 O86        -2.1595    0.2092    0.1097 O.co2     1 UNK         0.0000 
     87 C87        -2.7231    2.4471    0.1382 C.ar      1 UNK         0.0000 
     88 Cl88       -3.5048    2.2985    1.6959 Cl        1 UNK         0.0000 
     89 C89        -2.5385    3.7079   -0.4634 C.ar      1 UNK         0.0000 
     90 C90        -2.7444    4.9794    0.3057 C.2       1 UNK         0.0000 
     91 O91        -3.4376    5.8911   -0.1327 O.2       1 UNK         0.0000 
     92 N92        -2.0893    5.1579    1.4658 N.am      1 UNK         0.0000 
     93 C93        -1.0000    4.3576    2.0556 C.3       1 UNK         0.0000 
     94 C94        -1.2075    4.2388    3.5892 C.3       1 UNK         0.0000 
     95 N95        -0.2392    3.2981    4.3933 N.4       1 UNK         0.0000 
     96 C96         1.2550    3.5020    3.9838 C.3       1 UNK         0.0000 
     97 C97         1.9935    3.9576    5.2462 C.3       1 UNK         0.0000 
     98 C98         0.9453    4.7247    6.0259 C.3       1 UNK         0.0000 
     99 C99        -0.2753    3.8284    5.8677 C.3       1 UNK         0.0000 
    100 C100       -0.6949    1.7924    4.2951 C.3       1 UNK         0.0000 
    101 C101        0.1820    0.7787    5.1429 C.3       1 UNK         0.0000 
    102 C102        0.6491   -0.6401    4.6172 C.3       1 UNK         0.0000 
    103 C103        0.8398   -0.9250    3.1052 C.2       1 UNK         0.0000 
    104 O104        0.2849   -0.1806    2.2484 O.co2     1 UNK         0.0000 
    105 O105        1.4299   -1.9828    2.8133 O.co2     1 UNK         0.0000 
    106 C106       -0.4535    0.4943    6.5363 C.3       1 UNK         0.0000 
    107 S107        0.8439    0.1936    7.7733 S.3       1 UNK         0.0000 
    108 C108        1.5731   -1.2866    6.9884 C.3       1 UNK         0.0000 
    109 H109        0.9825   -2.1599    7.2677 H         1 UNK         0.0000 
    110 N110        1.7225   -1.1222    5.5184 N.am      1 UNK         0.0000 
    111 C111        3.1165   -1.4113    7.0886 C.3       1 UNK         0.0000 
    112 H112        3.6281   -0.6691    7.7061 H         1 UNK         0.0000 
    113 C113        3.1140   -1.0667    5.5493 C.2       1 UNK         0.0000 
    114 O114        3.9556   -0.6799    4.7393 O.2       1 UNK         0.0000 
    115 N115        3.6066   -2.7376    7.5304 N.am      1 UNK         0.0000 
    116 C116        4.8658   -3.2013    7.3661 C.2       1 UNK         0.0000 
    117 O117        5.7017   -2.5044    6.7894 O.2       1 UNK         0.0000 
    118 C118        5.1777   -4.5447    7.9469 C.2       1 UNK         0.0000 
    119 N119        6.4209   -4.6768    8.2518 N.2       1 UNK         0.0000 
    120 O120        6.8133   -5.9656    8.6796 O.3       1 UNK         0.0000 
    121 C121        8.2102   -6.0698    9.0457 C.3       1 UNK         0.0000 
    122 C122        8.1790   -6.4181   10.5476 C.3       1 UNK         0.0000 
    123 C123        9.0853   -4.7904    8.8513 C.3       1 UNK         0.0000 
    124 C124        8.8035   -7.2629    8.2311 C.2       1 UNK         0.0000 
    125 O125        9.8675   -7.2330    7.6153 O.2       1 UNK         0.0000 
    126 O126        8.0484   -8.3898    8.2752 O.3       1 UNK         0.0000 
    127 C127        4.0973   -5.5708    8.1395 C.2       1 UNK         0.0000 
    128 N128        4.2133   -6.5202    9.0747 N.2       1 UNK         0.0000 
    129 C129        3.2224   -7.3591    9.0945 C.2       1 UNK         0.0000 
    130 N130        3.1820   -8.4485    9.9260 N.pl3     1 UNK         0.0000 
    131 S131        1.9518   -7.0096    7.9679 S.3       1 UNK         0.0000 
    132 C132        2.8835   -5.6406    7.4187 C.2       1 UNK         0.0000 
    133 H133       -1.9940    4.7480   -2.2816 H         1 UNK         0.0000 
    134 H134       -1.2151    2.7433   -3.4299 H         1 UNK         0.0000 
    135 H135       -0.4107    0.7650   -3.0381 H         1 UNK         0.0000 
    136 H136       -2.2701    6.0727    1.8515 H         1 UNK         0.0000 
    137 H137       -0.0882    4.9046    1.8139 H         1 UNK         0.0000 
    138 H138       -0.8587    3.3779    1.5999 H         1 UNK         0.0000 
    139 H139       -1.0615    5.2355    4.0077 H         1 UNK         0.0000 
    140 H140       -2.2187    3.9159    3.8433 H         1 UNK         0.0000 
    141 H141        1.3182    4.3113    3.2610 H         1 UNK         0.0000 
    142 H142        1.6651    2.5983    3.5270 H         1 UNK         0.0000 
    143 H143        2.8540    4.5823    5.0057 H         1 UNK         0.0000 
    144 H144        2.3670    3.0978    5.8083 H         1 UNK         0.0000 
    145 H145        1.2284    4.8533    7.0728 H         1 UNK         0.0000 
    146 H146        0.7709    5.7161    5.6066 H         1 UNK         0.0000 
    147 H147       -1.2262    4.3138    6.1066 H         1 UNK         0.0000 
    148 H148       -0.1303    3.0122    6.5606 H         1 UNK         0.0000 
    149 H149       -0.7130    1.6182    3.2285 H         1 UNK         0.0000 
    150 H150       -1.7400    1.7753    4.6108 H         1 UNK         0.0000 
    151 H151       -1.1364    1.2518    6.9094 H         1 UNK         0.0000 
    152 H152       -1.0549   -0.4189    6.5240 H         1 UNK         0.0000 
    153 H153        2.9970   -3.2890    8.1141 H         1 UNK         0.0000 
    154 H154        9.1749   -6.6494   10.9348 H         1 UNK         0.0000 
    155 H155        7.5242   -7.2696   10.7476 H         1 UNK         0.0000 
    156 H156        7.7909   -5.5736   11.1205 H         1 UNK         0.0000 
    157 H157        8.6880   -3.9517    9.4222 H         1 UNK         0.0000 
    158 H158        9.1192   -4.4843    7.8045 H         1 UNK         0.0000 
    159 H159       10.1123   -4.9476    9.1875 H         1 UNK         0.0000 
    160 H160        2.4526   -9.1491    9.8981 H         1 UNK         0.0000 
    161 H161        3.9751   -8.6447   10.5260 H         1 UNK         0.0000 
    162 H162        2.5279   -5.0217    6.5990 H         1 UNK         0.0000 
    163 H163       -0.1171   -4.6865    1.3368 H         1 UNK         0.0000 
    164 H164       -8.5202   -7.7313    9.0112 H         1 UNK         0.0000 
    165 H165        1.1131    1.3056    5.3271 H         1 UNK         0.0000 
    166 H166       -0.1557   -1.3525    4.7844 H         1 UNK         0.0000 
    167 H167        8.5219   -9.0209    7.7344 H         1 UNK         0.0000 
    168 H168        1.0673   -7.0264   -1.3223 H         1 UNK         0.0000 
@<TRIPOS>BOND
     1    1    5 nc   
     2    1    7 nc   
     3    1   25 nc   
     4    1   84 nc   
     5    1   86 nc   
     6    1  104 nc   
     7    2   10 ar   
     8    2    3 ar   
     9    2   54 1    
    10    3    4 ar   
    11    3   55 1    
    12    4    6 ar   
    13    4    5 1    
    14    6    7 1    
    15    6    8 ar   
    16    8    9 1    
    17    8   10 ar   
    18   10   11 1    
    19   11   12 2    
    20   11   13 am   BACKBONE|DICT|INTERRES
    21   13   14 1    
    22   13   56 1    
    23   14   15 1    
    24   14   58 1    
    25   14   57 1    
    26   15   60 1    
    27   15   16 1    
    28   15   59 1    
    29   16   21 1    
    30   16   17 1    
    31   16   20 1    
    32   17   62 1    
    33   17   18 1    
    34   17   61 1    
    35   18   64 1    
    36   18   19 1    
    37   18   63 1    
    38   19   20 1    
    39   19   65 1    
    40   19   66 1    
    41   20   68 1    
    42   20   67 1    
    43   21   70 1    
    44   21   69 1    
    45   21   22 1    
    46   22   27 2    
    47   22   23 1    
    48   23   24 1    
    49   23   31 1    
    50   23  163 1    
    51   24   26 2    
    52   24   25 1    
    53   27   28 1    
    54   27  168 1    
    55   28   29 1    
    56   29   32 1    
    57   29   30 1    
    58   29   31 1    
    59   31   34 am   BACKBONE|DICT|INTERRES
    60   32   33 1    
    61   32   36 1    
    62   32   34 1    
    63   34   35 2    
    64   36   71 1    
    65   36   37 am   BACKBONE|DICT|INTERRES
    66   37   39 1    
    67   37   38 2    
    68   39   40 2    
    69   39   48 1    
    70   40   41 1    
    71   41   42 1    
    72   42   43 1    
    73   42   45 1    
    74   42   44 1    
    75   43   72 1    
    76   43   73 1    
    77   43   74 1    
    78   44   77 1    
    79   44   75 1    
    80   44   76 1    
    81   45   47 1    
    82   45   46 2    
    83   47  164 1    
    84   48   53 2    
    85   48   49 1    
    86   49   50 2    
    87   50   51 1    
    88   50   52 1    
    89   51   79 1    
    90   51   78 1    
    91   52   53 1    
    92   53   80 1    
    93   81   89 ar   
    94   81   82 ar   
    95   81  133 1    
    96   82   83 ar   
    97   82  134 1    
    98   83   85 ar   
    99   83   84 1    
   100   84  135 1    
   101   85   86 1    
   102   85   87 ar   
   103   87   88 1    
   104   87   89 ar   
   105   89   90 1    
   106   90   92 am   BACKBONE|DICT|INTERRES
   107   90   91 2    
   108   92  136 1    
   109   92   93 1    
   110   93   94 1    
   111   93  137 1    
   112   93  138 1    
   113   94  140 1    
   114   94  139 1    
   115   94   95 1    
   116   95   99 1    
   117   95   96 1    
   118   95  100 1    
   119   96   97 1    
   120   96  141 1    
   121   96  142 1    
   122   97  144 1    
   123   97   98 1    
   124   97  143 1    
   125   98  145 1    
   126   98   99 1    
   127   98  146 1    
   128   99  147 1    
   129   99  148 1    
   130  100  150 1    
   131  100  101 1    
   132  100  149 1    
   133  101  106 1    
   134  101  102 1    
   135  101  165 1    
   136  102  103 1    
   137  102  110 1    
   138  102  166 1    
   139  103  104 1    
   140  103  105 2    
   141  106  152 1    
   142  106  151 1    
   143  106  107 1    
   144  107  108 1    
   145  108  111 1    
   146  108  109 1    
   147  108  110 1    
   148  110  113 am   BACKBONE|DICT|INTERRES
   149  111  112 1    
   150  111  115 1    
   151  111  113 1    
   152  113  114 2    
   153  115  153 1    
   154  115  116 am   BACKBONE|DICT|INTERRES
   155  116  118 1    
   156  116  117 2    
   157  118  119 2    
   158  118  127 1    
   159  119  120 1    
   160  120  121 1    
   161  121  122 1    
   162  121  123 1    
   163  121  124 1    
   164  122  155 1    
   165  122  154 1    
   166  122  156 1    
   167  123  159 1    
   168  123  157 1    
   169  123  158 1    
   170  124  126 1    
   171  124  125 2    
   172  126  167 1    
   173  127  128 1    
   174  127  132 2    
   175  128  129 2    
   176  129  130 1    
   177  129  131 1    
   178  130  160 1    
   179  130  161 1    
   180  131  132 1    
   181  132  162 1    
@<TRIPOS>SUBSTRUCTURE
     1 UNK         1 GROUP             0       ****    0 ROOT    
