@<TRIPOS>MOLECULE
117_c1
99   104    1
SMALL
USER_CHARGES


@<TRIPOS>ATOM
      1 Fe1         0.0337   -0.2569    1.3670 Fe        1 UNK         0.0000 
      2 C2         -1.9645    2.9849    2.4343 C.3       1 UNK         0.0000 
      3 C3         -0.8371    1.9911    2.4078 C.2       1 UNK         0.0000 
      4 O4         -1.0361    0.7869    2.3043 O.co2     1 UNK         0.0000 
      5 N5          0.4602    2.2618    2.4389 N.am      1 UNK         0.0000 
      6 O6          1.1778    1.1329    2.3240 O.co2     1 UNK         0.0000 
      7 C7          1.0551    3.5850    2.4693 C.3       1 UNK         0.0000 
      8 C8          0.9789    4.2216    1.0785 C.3       1 UNK         0.0000 
      9 C9          1.4119    5.6914    1.0865 C.3       1 UNK         0.0000 
     10 C10         1.5329    6.2908   -0.3346 C.3       1 UNK         0.0000 
     11 H11         1.7560    7.3746   -0.2154 H         1 UNK         0.0000 
     12 N12         2.6646    5.6937   -1.0179 N.am      1 UNK         0.0000 
     13 C13         2.6022    5.0790   -2.2248 C.2       1 UNK         0.0000 
     14 O14         3.6284    4.6363   -2.7183 O.2       1 UNK         0.0000 
     15 C15         0.2404    6.1731   -1.1150 C.2       1 UNK         0.0000 
     16 O16        -0.7732    6.6718   -0.6482 O.2       1 UNK         0.0000 
     17 N17         0.1732    5.5501   -2.3238 N.am      1 UNK         0.0000 
     18 C18         1.3107    4.9485   -3.0008 C.3       1 UNK         0.0000 
     19 H19         1.4577    5.4932   -3.9584 H         1 UNK         0.0000 
     20 C20         1.0215    3.4722   -3.3667 C.3       1 UNK         0.0000 
     21 C21         0.7221    2.5700   -2.1613 C.3       1 UNK         0.0000 
     22 C22         0.5306    1.1081   -2.5821 C.3       1 UNK         0.0000 
     23 N23         0.0716    0.3190   -1.4448 N.am      1 UNK         0.0000 
     24 O24         0.6776    0.3080   -0.2517 O.co2     1 UNK         0.0000 
     25 C25        -1.0558   -0.3540   -1.3512 C.2       1 UNK         0.0000 
     26 O26        -1.2965   -0.6152   -0.2008 O.co2     1 UNK         0.0000 
     27 C27        -2.0101   -0.7340   -2.4192 C.2       1 UNK         0.0000 
     28 C28        -1.7059   -1.2437   -3.6385 C.2       1 UNK         0.0000 
     29 C29        -2.8421   -1.5709   -4.5823 C.3       1 UNK         0.0000 
     30 C30        -0.2876   -1.5434   -4.1083 C.3       1 UNK         0.0000 
     31 C31        -0.0433   -3.0222   -4.4206 C.3       1 UNK         0.0000 
     32 O32        -0.0515   -3.7922   -3.2658 O.3       1 UNK         0.0000 
     33 C33         0.1349   -5.1401   -3.2930 C.2       1 UNK         0.0000 
     34 O34         0.0846   -5.7194   -4.3687 O.2       1 UNK         0.0000 
     35 C35         0.4511   -5.9180   -2.0048 C.3       1 UNK         0.0000 
     36 H36         1.3812   -5.4838   -1.5824 H         1 UNK         0.0000 
     37 N37         0.7381   -7.3770   -2.2199 N.4       1 UNK         0.0000 
     38 H38         0.9647   -7.7795   -1.2785 H         1 UNK         0.0000 
     39 C39         1.9556   -7.6052   -3.0259 C.3       1 UNK         0.0000 
     40 C40        -0.3925   -8.1735   -2.7440 C.3       1 UNK         0.0000 
     41 C41        -0.6608   -5.7452   -0.9268 C.3       1 UNK         0.0000 
     42 C42        -0.7264   -4.3846   -0.2015 C.3       1 UNK         0.0000 
     43 C43         0.5112   -4.1123    0.6897 C.3       1 UNK         0.0000 
     44 N44         0.3093   -2.9199    1.4899 N.am      1 UNK         0.0000 
     45 O45         0.9488   -1.7428    1.4531 O.co2     1 UNK         0.0000 
     46 C46        -0.4785   -2.6135    2.4350 C.2       1 UNK         0.0000 
     47 O47        -0.2693   -1.4113    2.5733 O.co2     1 UNK         0.0000 
     48 C48        -1.3948   -3.5090    3.1826 C.2       1 UNK         0.0000 
     49 C49        -2.0572   -3.2273    4.3327 C.2       1 UNK         0.0000 
     50 C50        -1.9944   -1.8812    5.0345 C.3       1 UNK         0.0000 
     51 C51        -2.8637   -4.3728    4.9357 C.3       1 UNK         0.0000 
     52 C52        -3.4841   -4.1129    6.3136 C.3       1 UNK         0.0000 
     53 O53        -2.4732   -3.9135    7.2638 O.3       1 UNK         0.0000 
     54 H54        -2.5591    2.8800    1.5018 H         1 UNK         0.0000 
     55 H55        -1.6110    4.0320    2.5023 H         1 UNK         0.0000 
     56 H56        -2.6198    2.7774    3.3046 H         1 UNK         0.0000 
     57 H57         0.5578    4.1963    3.2523 H         1 UNK         0.0000 
     58 H58         2.1312    3.5087    2.7389 H         1 UNK         0.0000 
     59 H59        -0.0541    4.1645    0.6760 H         1 UNK         0.0000 
     60 H60         1.6537    3.6383    0.4276 H         1 UNK         0.0000 
     61 H61         0.6685    6.2707    1.6779 H         1 UNK         0.0000 
     62 H62         2.3977    5.7946    1.5915 H         1 UNK         0.0000 
     63 H63         3.5857    5.7638   -0.5570 H         1 UNK         0.0000 
     64 H64        -0.7366    5.5225   -2.8085 H         1 UNK         0.0000 
     65 H65         1.8941    3.0647   -3.9239 H         1 UNK         0.0000 
     66 H66         0.1452    3.4414   -4.0518 H         1 UNK         0.0000 
     67 H67         1.5708    2.5986   -1.4535 H         1 UNK         0.0000 
     68 H68        -0.2001    2.9391   -1.6617 H         1 UNK         0.0000 
     69 H69        -0.2213    1.0752   -3.3981 H         1 UNK         0.0000 
     70 H70         1.4999    0.7161   -2.9594 H         1 UNK         0.0000 
     71 H71        -3.0582   -0.6718   -2.1386 H         1 UNK         0.0000 
     72 H72        -2.7086   -1.0045   -5.5276 H         1 UNK         0.0000 
     73 H73        -3.8355   -1.3022   -4.1633 H         1 UNK         0.0000 
     74 H74        -2.8664   -2.6554   -4.8076 H         1 UNK         0.0000 
     75 H75         0.4805   -1.2859   -3.3628 H         1 UNK         0.0000 
     76 H76        -0.1054   -0.9474   -5.0281 H         1 UNK         0.0000 
     77 H77         0.9643   -3.1092   -4.8851 H         1 UNK         0.0000 
     78 H78        -0.7829   -3.3962   -5.1592 H         1 UNK         0.0000 
     79 H79         1.8284   -7.3025   -4.0837 H         1 UNK         0.0000 
     80 H80         2.2249   -8.6847   -3.0216 H         1 UNK         0.0000 
     81 H81         2.8194   -7.0517   -2.5971 H         1 UNK         0.0000 
     82 H82        -0.6913   -7.8696   -3.7655 H         1 UNK         0.0000 
     83 H83        -0.1151   -9.2500   -2.7875 H         1 UNK         0.0000 
     84 H84        -1.2753   -8.1077   -2.0758 H         1 UNK         0.0000 
     85 H85        -1.6466   -5.9592   -1.3935 H         1 UNK         0.0000 
     86 H86        -0.5082   -6.4951   -0.1201 H         1 UNK         0.0000 
     87 H87        -0.8861   -3.5510   -0.9161 H         1 UNK         0.0000 
     88 H88        -1.6215   -4.4274    0.4536 H         1 UNK         0.0000 
     89 H89         1.3959   -3.9599    0.0389 H         1 UNK         0.0000 
     90 H90         0.7076   -4.9687    1.3691 H         1 UNK         0.0000 
     91 H91        -1.4020   -1.1099    4.5229 H         1 UNK         0.0000 
     92 H92        -3.0195   -1.4712    5.1400 H         1 UNK         0.0000 
     93 H93        -1.5404   -1.9964    6.0382 H         1 UNK         0.0000 
     94 H94        -3.6747   -4.6379    4.2229 H         1 UNK         0.0000 
     95 H95        -2.1973   -5.2577    5.0456 H         1 UNK         0.0000 
     96 H96        -4.1632   -3.2341    6.2704 H         1 UNK         0.0000 
     97 H97        -4.0702   -5.0151    6.5980 H         1 UNK         0.0000 
     98 H98        -2.9305   -3.7798    8.1337 H         1 UNK         0.0000 
     99 H99        -1.5929   -4.5058    2.8172 H         1 UNK         0.0000 
@<TRIPOS>BOND
     1    1    4 nc   
     2    1    6 nc   
     3    1   24 nc   
     4    1   26 nc   
     5    1   45 nc   
     6    1   47 nc   
     7    2   55 1    
     8    2   56 1    
     9    2    3 1    
    10    2   54 1    
    11    3    5 am   BACKBONE|DICT|INTERRES
    12    3    4 2    
    13    5    7 1    
    14    5    6 1    
    15    7   58 1    
    16    7   57 1    
    17    7    8 1    
    18    8    9 1    
    19    8   59 1    
    20    8   60 1    
    21    9   62 1    
    22    9   61 1    
    23    9   10 1    
    24   10   11 1    
    25   10   12 1    
    26   10   15 1    
    27   12   63 1    
    28   12   13 am   BACKBONE|DICT|INTERRES
    29   13   14 2    
    30   13   18 1    
    31   15   16 2    
    32   15   17 am   BACKBONE|DICT|INTERRES
    33   17   18 1    
    34   17   64 1    
    35   18   19 1    
    36   18   20 1    
    37   20   21 1    
    38   20   65 1    
    39   20   66 1    
    40   21   68 1    
    41   21   67 1    
    42   21   22 1    
    43   22   23 1    
    44   22   69 1    
    45   22   70 1    
    46   23   25 am   BACKBONE|DICT|INTERRES
    47   23   24 1    
    48   25   27 1    
    49   25   26 2    
    50   27   71 1    
    51   27   28 2    
    52   28   29 1    
    53   28   30 1    
    54   29   73 1    
    55   29   72 1    
    56   29   74 1    
    57   30   75 1    
    58   30   31 1    
    59   30   76 1    
    60   31   32 1    
    61   31   77 1    
    62   31   78 1    
    63   32   33 1    
    64   33   35 1    
    65   33   34 2    
    66   35   36 1    
    67   35   41 1    
    68   35   37 1    
    69   37   38 1    
    70   37   39 1    
    71   37   40 1    
    72   39   80 1    
    73   39   81 1    
    74   39   79 1    
    75   40   84 1    
    76   40   82 1    
    77   40   83 1    
    78   41   42 1    
    79   41   86 1    
    80   41   85 1    
    81   42   88 1    
    82   42   43 1    
    83   42   87 1    
    84   43   90 1    
    85   43   44 1    
    86   43   89 1    
    87   44   46 am   BACKBONE|DICT|INTERRES
    88   44   45 1    
    89   46   47 2    
    90   46   48 1    
    91   48   49 2    
    92   48   99 1    
    93   49   51 1    
    94   49   50 1    
    95   50   92 1    
    96   50   93 1    
    97   50   91 1    
    98   51   95 1    
    99   51   52 1    
   100   51   94 1    
   101   52   97 1    
   102   52   53 1    
   103   52   96 1    
   104   53   98 1    
@<TRIPOS>SUBSTRUCTURE
     1 UNK         1 GROUP             0       ****    0 ROOT    
