@<TRIPOS>MOLECULE
100_c1
89   93    1
SMALL
USER_CHARGES


@<TRIPOS>ATOM
      1 Fe1        -0.0635   -0.3212    0.1922 Fe        1 UNK         0.0000 
      2 O2          4.3326    3.8939   -3.3559 O.2       1 UNK         0.0000 
      3 C3          4.3400    3.2708   -2.3045 C.2       1 UNK         0.0000 
      4 O4          5.4218    3.1722   -1.4862 O.3       1 UNK         0.0000 
      5 C5          3.1003    2.5646   -1.7432 C.3       1 UNK         0.0000 
      6 C6          2.5245    1.4659   -2.6738 C.3       1 UNK         0.0000 
      7 C7          1.2890    0.8271   -2.0113 C.2       1 UNK         0.0000 
      8 O8          1.3262    0.2290   -0.9239 O.co2     1 UNK         0.0000 
      9 N9          0.0163    0.9512   -2.4514 N.am      1 UNK         0.0000 
     10 O10        -0.9486    0.4530   -1.6723 O.co2     1 UNK         0.0000 
     11 C11        -0.4284    1.6710   -3.6643 C.3       1 UNK         0.0000 
     12 C12        -0.3794    3.2207   -3.5625 C.3       1 UNK         0.0000 
     13 C13        -0.9124    3.8047   -2.2364 C.3       1 UNK         0.0000 
     14 C14        -0.7348    5.3351   -2.0963 C.3       1 UNK         0.0000 
     15 C15        -0.8236    5.8314   -0.6402 C.3       1 UNK         0.0000 
     16 N16         0.2605    5.2770    0.1854 N.am      1 UNK         0.0000 
     17 C17         0.0796    4.4866    1.2488 C.2       1 UNK         0.0000 
     18 O18        -1.0225    4.2290    1.7170 O.2       1 UNK         0.0000 
     19 C19         1.3363    3.8247    1.8356 C.3       1 UNK         0.0000 
     20 C20         1.0597    2.7085    2.8798 C.3       1 UNK         0.0000 
     21 C21         0.2887    1.5242    2.2816 C.2       1 UNK         0.0000 
     22 O22         0.5966    0.9957    1.2124 O.co2     1 UNK         0.0000 
     23 N23        -0.8182    0.9476    2.7753 N.am      1 UNK         0.0000 
     24 O24        -1.3571   -0.0180    2.0163 O.co2     1 UNK         0.0000 
     25 C25        -1.5193    1.3521    3.9951 C.3       1 UNK         0.0000 
     26 C26        -0.8339    0.8807    5.3049 C.3       1 UNK         0.0000 
     27 C27        -0.7738   -0.6474    5.5620 C.3       1 UNK         0.0000 
     28 C28         0.3018   -1.4035    4.7584 C.3       1 UNK         0.0000 
     29 N29         0.1714   -2.8531    4.8782 N.am      1 UNK         0.0000 
     30 C30         0.7864   -3.7973    4.1646 C.2       1 UNK         0.0000 
     31 O31         0.4334   -4.9666    4.2492 O.2       1 UNK         0.0000 
     32 C32         1.9453   -3.4429    3.2164 C.3       1 UNK         0.0000 
     33 C33         1.6648   -3.8285    1.7422 C.3       1 UNK         0.0000 
     34 C34         0.7811   -2.8071    1.0055 C.2       1 UNK         0.0000 
     35 O35         0.9966   -1.5844    0.9793 O.co2     1 UNK         0.0000 
     36 N36        -0.2854   -3.0995    0.2407 N.am      1 UNK         0.0000 
     37 O37        -0.8645   -2.0548   -0.3547 O.co2     1 UNK         0.0000 
     38 C38        -0.9274   -4.4094    0.0799 C.3       1 UNK         0.0000 
     39 C39        -0.3545   -5.1947   -1.1177 C.3       1 UNK         0.0000 
     40 C40        -1.1162   -6.5055   -1.3994 C.3       1 UNK         0.0000 
     41 C41        -0.4893   -7.3397   -2.5383 C.3       1 UNK         0.0000 
     42 C42         0.9237   -7.8736   -2.2227 C.3       1 UNK         0.0000 
     43 N43         1.4312   -8.7685   -3.3666 N.4       1 UNK         0.0000 
     44 H44         1.4814   -8.2463   -4.2293 H         1 UNK         0.0000 
     45 H45         0.8217   -9.5625   -3.5048 H         1 UNK         0.0000 
     46 H46         2.3558   -9.1216   -3.1615 H         1 UNK         0.0000 
     47 H47         3.3233    2.1721   -0.7476 H         1 UNK         0.0000 
     48 H48         2.3660    3.3632   -1.6582 H         1 UNK         0.0000 
     49 H49         2.2166    1.8818   -3.6334 H         1 UNK         0.0000 
     50 H50         3.2491    0.6688   -2.8432 H         1 UNK         0.0000 
     51 H51         0.1654    1.3445   -4.5209 H         1 UNK         0.0000 
     52 H52        -1.4588    1.3790   -3.8969 H         1 UNK         0.0000 
     53 H53        -0.9372    3.6446   -4.4008 H         1 UNK         0.0000 
     54 H54         0.6491    3.5540   -3.7088 H         1 UNK         0.0000 
     55 H55        -1.9676    3.5430   -2.1230 H         1 UNK         0.0000 
     56 H56        -0.3981    3.3054   -1.4138 H         1 UNK         0.0000 
     57 H57         0.2215    5.6502   -2.5208 H         1 UNK         0.0000 
     58 H58        -1.5026    5.8307   -2.6939 H         1 UNK         0.0000 
     59 H59        -1.8025    5.5346   -0.2510 H         1 UNK         0.0000 
     60 H60        -0.8057    6.9188   -0.5961 H         1 UNK         0.0000 
     61 H61         1.1998    5.5523   -0.0475 H         1 UNK         0.0000 
     62 H62         1.9800    3.4402    1.0471 H         1 UNK         0.0000 
     63 H63         1.9264    4.6091    2.3022 H         1 UNK         0.0000 
     64 H64         0.5897    3.1181    3.7719 H         1 UNK         0.0000 
     65 H65         2.0116    2.3070    3.2309 H         1 UNK         0.0000 
     66 H66        -1.6472    2.4422    4.0052 H         1 UNK         0.0000 
     67 H67        -2.5352    0.9554    3.9572 H         1 UNK         0.0000 
     68 H68         0.1622    1.3179    5.3719 H         1 UNK         0.0000 
     69 H69        -1.3970    1.3355    6.1200 H         1 UNK         0.0000 
     70 H70        -1.7595   -1.0809    5.3812 H         1 UNK         0.0000 
     71 H71        -0.5728   -0.7925    6.6240 H         1 UNK         0.0000 
     72 H72         0.1995   -1.1495    3.7077 H         1 UNK         0.0000 
     73 H73         1.2976   -1.0562    5.0477 H         1 UNK         0.0000 
     74 H74        -0.5786   -3.2059    5.4506 H         1 UNK         0.0000 
     75 H75         2.7695   -4.0606    3.5744 H         1 UNK         0.0000 
     76 H76         2.3160   -2.4210    3.2989 H         1 UNK         0.0000 
     77 H77         1.3392   -4.8610    1.6373 H         1 UNK         0.0000 
     78 H78         2.6062   -3.7975    1.2000 H         1 UNK         0.0000 
     79 H79        -2.0051   -4.2818   -0.0426 H         1 UNK         0.0000 
     80 H80        -0.8425   -5.0064    0.9915 H         1 UNK         0.0000 
     81 H81        -0.3692   -4.5642   -2.0103 H         1 UNK         0.0000 
     82 H82         0.6898   -5.4133   -0.8950 H         1 UNK         0.0000 
     83 H83        -1.1906   -7.0955   -0.4840 H         1 UNK         0.0000 
     84 H84        -2.1448   -6.2447   -1.6676 H         1 UNK         0.0000 
     85 H85        -1.1629   -8.1670   -2.7652 H         1 UNK         0.0000 
     86 H86        -0.4636   -6.7218   -3.4357 H         1 UNK         0.0000 
     87 H87         0.9500   -8.4986   -1.3268 H         1 UNK         0.0000 
     88 H88         1.6658   -7.0763   -2.1431 H         1 UNK         0.0000 
     89 H89         5.2606    2.6280   -0.7202 H         1 UNK         0.0000 
@<TRIPOS>BOND
     1    1    8 nc   
     2    1   10 nc   
     3    1   22 nc   
     4    1   24 nc   
     5    1   35 nc   
     6    1   37 nc   
     7    2    3 2    
     8    3    4 1    
     9    3    5 1    
    10    4   89 1    
    11    5   48 1    
    12    5   47 1    
    13    5    6 1    
    14    6    7 1    
    15    6   49 1    
    16    6   50 1    
    17    7    8 2    
    18    7    9 am   BACKBONE|DICT|INTERRES
    19    9   10 1    
    20    9   11 1    
    21   11   12 1    
    22   11   51 1    
    23   11   52 1    
    24   12   13 1    
    25   12   53 1    
    26   12   54 1    
    27   13   14 1    
    28   13   55 1    
    29   13   56 1    
    30   14   15 1    
    31   14   57 1    
    32   14   58 1    
    33   15   60 1    
    34   15   59 1    
    35   15   16 1    
    36   16   17 am   BACKBONE|DICT|INTERRES
    37   16   61 1    
    38   17   18 2    
    39   17   19 1    
    40   19   63 1    
    41   19   20 1    
    42   19   62 1    
    43   20   65 1    
    44   20   64 1    
    45   20   21 1    
    46   21   22 2    
    47   21   23 am   BACKBONE|DICT|INTERRES
    48   23   25 1    
    49   23   24 1    
    50   25   26 1    
    51   25   66 1    
    52   25   67 1    
    53   26   68 1    
    54   26   27 1    
    55   26   69 1    
    56   27   71 1    
    57   27   28 1    
    58   27   70 1    
    59   28   29 1    
    60   28   73 1    
    61   28   72 1    
    62   29   74 1    
    63   29   30 am   BACKBONE|DICT|INTERRES
    64   30   31 2    
    65   30   32 1    
    66   32   76 1    
    67   32   75 1    
    68   32   33 1    
    69   33   34 1    
    70   33   77 1    
    71   33   78 1    
    72   34   36 am   BACKBONE|DICT|INTERRES
    73   34   35 2    
    74   36   37 1    
    75   36   38 1    
    76   38   80 1    
    77   38   39 1    
    78   38   79 1    
    79   39   82 1    
    80   39   40 1    
    81   39   81 1    
    82   40   83 1    
    83   40   41 1    
    84   40   84 1    
    85   41   42 1    
    86   41   85 1    
    87   41   86 1    
    88   42   88 1    
    89   42   87 1    
    90   42   43 1    
    91   43   46 1    
    92   43   44 1    
    93   43   45 1    
@<TRIPOS>SUBSTRUCTURE
     1 UNK         1 GROUP             0       ****    0 ROOT    
