@<TRIPOS>MOLECULE
046_c1
130   134    1
SMALL
USER_CHARGES


@<TRIPOS>ATOM
      1 O1         14.0268    5.1372   -3.1559 O.co2     1 UNK         0.0000 
      2 C2         13.2192    5.8699   -3.7508 C.2       1 UNK         0.0000 
      3 C3         12.3621    5.2955   -4.8738 C.3       1 UNK         0.0000 
      4 N4         13.1235    7.1620   -3.3541 N.am      1 UNK         0.0000 
      5 O5         13.8867    7.6923   -2.3935 O.co2     1 UNK         0.0000 
      6 C6         12.1059    8.1016   -3.8740 C.3       1 UNK         0.0000 
      7 C7         11.0668    8.5631   -2.8223 C.3       1 UNK         0.0000 
      8 C8         11.5558    9.5735   -1.7473 C.3       1 UNK         0.0000 
      9 C9         12.0182   10.9637   -2.2786 C.3       1 UNK         0.0000 
     10 H10        12.7291   10.8178   -3.0992 H         1 UNK         0.0000 
     11 C11        10.7858   11.7482   -2.8702 C.2       1 UNK         0.0000 
     12 O12        10.0185   12.2732   -2.0295 O.co2     1 UNK         0.0000 
     13 O13        10.6051   11.5796   -4.0937 O.co2     1 UNK         0.0000 
     14 N14        12.7244   11.7115   -1.2133 N.am      1 UNK         0.0000 
     15 C15        13.4334   12.8401   -1.3919 C.2       1 UNK         0.0000 
     16 O16        13.5791   13.4066   -2.4700 O.2       1 UNK         0.0000 
     17 C17        14.1405   13.4032   -0.1466 C.3       1 UNK         0.0000 
     18 H18        13.4006   13.4502    0.6483 H         1 UNK         0.0000 
     19 C19        14.6920   14.8356   -0.3039 C.3       1 UNK         0.0000 
     20 O20        13.6277   15.7706   -0.2861 O.3       1 UNK         0.0000 
     21 N21        15.1749   12.4933    0.3333 N.am      1 UNK         0.0000 
     22 C22        16.3079   12.1761   -0.3132 C.2       1 UNK         0.0000 
     23 O23        16.6808   12.7280   -1.3449 O.2       1 UNK         0.0000 
     24 C24        17.1894   11.0892    0.3220 C.3       1 UNK         0.0000 
     25 H25        17.5108   11.4538    1.3017 H         1 UNK         0.0000 
     26 C26        16.4565    9.7331    0.4490 C.3       1 UNK         0.0000 
     27 C27        15.2515    9.5793    1.3980 C.3       1 UNK         0.0000 
     28 C28        14.9887    8.1136    1.8189 C.3       1 UNK         0.0000 
     29 N29        14.7272    7.1532    0.7156 N.am      1 UNK         0.0000 
     30 O30        15.7741    7.0019   -0.1020 O.co2     1 UNK         0.0000 
     31 C31        13.5788    6.4470    0.5404 C.2       1 UNK         0.0000 
     32 O32        13.5015    5.7081   -0.4585 O.co2     1 UNK         0.0000 
     33 C33        12.3870    6.5139    1.4904 C.3       1 UNK         0.0000 
     34 N34        18.3858   10.8796   -0.5050 N.am      1 UNK         0.0000 
     35 C35        19.4396   10.1634   -0.1004 C.2       1 UNK         0.0000 
     36 O36        19.6215    9.8478    1.0753 O.2       1 UNK         0.0000 
     37 C37        20.4403    9.6711   -1.1576 C.3       1 UNK         0.0000 
     38 H38        20.3434   10.3622   -1.9981 H         1 UNK         0.0000 
     39 C39        20.2023    8.2314   -1.6709 C.3       1 UNK         0.0000 
     40 C40        18.7853    7.7408   -1.9483 C.3       1 UNK         0.0000 
     41 C41        18.7882    6.2544   -2.3907 C.3       1 UNK         0.0000 
     42 N42        17.4586    5.6374   -2.2996 N.am      1 UNK         0.0000 
     43 O43        16.5380    6.3439   -2.9584 O.co2     1 UNK         0.0000 
     44 C44        17.1454    4.6073   -1.4689 C.2       1 UNK         0.0000 
     45 O45        15.9396    4.4512   -1.2206 O.co2     1 UNK         0.0000 
     46 C46        18.1863    3.7013   -0.8157 C.3       1 UNK         0.0000 
     47 N47        21.7801    9.6735   -0.5778 N.am      1 UNK         0.0000 
     48 C48        22.9287    9.6822   -1.2756 C.2       1 UNK         0.0000 
     49 O49        23.9838    9.3413   -0.7642 O.2       1 UNK         0.0000 
     50 C50        22.9288   10.2503   -2.6897 C.3       1 UNK         0.0000 
     51 H51        12.6240    4.2559   -5.0545 H         1 UNK         0.0000 
     52 H52        11.3043    5.3444   -4.6186 H         1 UNK         0.0000 
     53 H53        12.5233    5.8475   -5.7998 H         1 UNK         0.0000 
     54 H54        12.6382    8.9532   -4.2997 H         1 UNK         0.0000 
     55 H55        11.5463    7.6983   -4.7143 H         1 UNK         0.0000 
     56 H56        10.6862    7.6724   -2.3292 H         1 UNK         0.0000 
     57 H57        10.2197    8.9993   -3.3513 H         1 UNK         0.0000 
     58 H58        12.3554    9.1303   -1.1591 H         1 UNK         0.0000 
     59 H59        10.7388    9.7172   -1.0303 H         1 UNK         0.0000 
     60 H60        12.5620   11.3668   -0.2814 H         1 UNK         0.0000 
     61 H61        15.3148   14.9495   -1.1950 H         1 UNK         0.0000 
     62 H62        15.3267   15.0843    0.5417 H         1 UNK         0.0000 
     63 H63        13.2401   15.8046   -1.1671 H         1 UNK         0.0000 
     64 H64        14.9597   11.9983    1.1811 H         1 UNK         0.0000 
     65 H65        17.1958    8.9968    0.7788 H         1 UNK         0.0000 
     66 H66        16.1332    9.4437   -0.5564 H         1 UNK         0.0000 
     67 H67        14.3527    9.9711    0.9326 H         1 UNK         0.0000 
     68 H68        15.4191   10.1568    2.3057 H         1 UNK         0.0000 
     69 H69        15.8782    7.7270    2.3282 H         1 UNK         0.0000 
     70 H70        14.2221    8.1484    2.5853 H         1 UNK         0.0000 
     71 H71        12.5086    7.1123    2.3879 H         1 UNK         0.0000 
     72 H72        12.1708    5.5023    1.8217 H         1 UNK         0.0000 
     73 H73        11.5160    6.8981    0.9618 H         1 UNK         0.0000 
     74 H74        18.3002   11.2154   -1.4591 H         1 UNK         0.0000 
     75 H75        20.7963    8.1038   -2.5787 H         1 UNK         0.0000 
     76 H76        20.6326    7.5491   -0.9347 H         1 UNK         0.0000 
     77 H77        18.2968    8.3500   -2.7111 H         1 UNK         0.0000 
     78 H78        18.1982    7.8281   -1.0378 H         1 UNK         0.0000 
     79 H79        19.1635    6.1531   -3.4134 H         1 UNK         0.0000 
     80 H80        19.5199    5.7361   -1.7742 H         1 UNK         0.0000 
     81 H81        17.8510    2.6665   -0.8772 H         1 UNK         0.0000 
     82 H82        18.2895    3.9649    0.2373 H         1 UNK         0.0000 
     83 H83        19.1648    3.7424   -1.2924 H         1 UNK         0.0000 
     84 H84        21.8146    9.4579    0.4107 H         1 UNK         0.0000 
     85 Fe85       14.9677    6.1233   -1.7286 Fe        1 UNK         0.0000 
     86 H86        22.1804    9.7599   -3.3115 H         1 UNK         0.0000 
     87 H87        23.8839   10.0626   -3.1852 H         1 UNK         0.0000 
     88 C88        22.6834   11.7584   -2.5928 C.3       1 UNK         0.0000 
     89 H89        22.0974   12.0233   -1.7057 H         1 UNK         0.0000 
     90 C90        21.9292   12.3336   -3.7745 C.3       1 UNK         0.0000 
     91 H91        23.6405   12.2646   -2.4596 H         1 UNK         0.0000 
     92 H92        20.9584   11.8492   -3.9011 H         1 UNK         0.0000 
     93 H93        22.4907   12.1880   -4.6992 H         1 UNK         0.0000 
     94 C94        21.7388   13.8068   -3.4824 C.3       1 UNK         0.0000 
     95 H95        21.1042   13.9510   -2.6043 H         1 UNK         0.0000 
     96 C96        21.1406   14.5304   -4.6549 C.3       1 UNK         0.0000 
     97 H97        22.7052   14.2539   -3.2376 H         1 UNK         0.0000 
     98 H98        20.1151   14.2012   -4.8365 H         1 UNK         0.0000 
     99 H99        21.7129   14.3183   -5.5602 H         1 UNK         0.0000 
    100 C100       21.1865   16.0066   -4.3464 C.3       1 UNK         0.0000 
    101 H101       20.5711   16.2396   -3.4747 H         1 UNK         0.0000 
    102 C102       20.7084   16.7687   -5.5480 C.3       1 UNK         0.0000 
    103 H103       22.2077   16.3134   -4.1047 H         1 UNK         0.0000 
    104 H104       19.6769   16.4936   -5.7763 H         1 UNK         0.0000 
    105 H105       21.3122   16.5108   -6.4208 H         1 UNK         0.0000 
    106 C106       20.8146   18.2454   -5.2665 C.3       1 UNK         0.0000 
    107 H107       20.2177   18.5076   -4.3903 H         1 UNK         0.0000 
    108 C108       20.3235   18.9803   -6.4858 C.3       1 UNK         0.0000 
    109 H109       21.8478   18.5207   -5.0435 H         1 UNK         0.0000 
    110 H110       19.3031   18.6669   -6.7183 H         1 UNK         0.0000 
    111 H111       20.9391   18.7185   -7.3493 H         1 UNK         0.0000 
    112 C112       20.3674   20.4667   -6.2379 C.3       1 UNK         0.0000 
    113 H113       19.7601   20.7152   -5.3650 H         1 UNK         0.0000 
    114 C114       19.8457   21.1757   -7.4645 C.3       1 UNK         0.0000 
    115 H115       21.3913   20.7777   -6.0198 H         1 UNK         0.0000 
    116 H116       18.8290   20.8400   -7.6800 H         1 UNK         0.0000 
    117 H117       20.4533   20.9048   -8.3307 H         1 UNK         0.0000 
    118 C118       19.8678   22.6747   -7.2557 C.3       1 UNK         0.0000 
    119 H119       19.2560   22.9392   -6.3921 H         1 UNK         0.0000 
    120 C120       19.3511   23.3561   -8.5090 C.3       1 UNK         0.0000 
    121 H121       20.8842   23.0019   -7.0325 H         1 UNK         0.0000 
    122 H122       18.3391   23.0047   -8.7207 H         1 UNK         0.0000 
    123 H123       19.9680   23.0552   -9.3585 H         1 UNK         0.0000 
    124 C124       19.3593   24.8684   -8.3640 C.3       1 UNK         0.0000 
    125 H125       18.7098   25.1696   -7.5402 H         1 UNK         0.0000 
    126 C126       18.8829   25.5218   -9.6463 C.3       1 UNK         0.0000 
    127 H127       20.3665   25.2205   -8.1336 H         1 UNK         0.0000 
    128 H128       17.8676   25.2027   -9.8902 H         1 UNK         0.0000 
    129 H129       19.5388   25.2605  -10.4791 H         1 UNK         0.0000 
    130 H130       18.8969   26.5993   -9.5021 H         1 UNK         0.0000 
@<TRIPOS>BOND
     1    1    2 2    
     2    1   85 nc   
     3    2    3 1    
     4    2    4 am   BACKBONE|DICT|INTERRES
     5    3   51 1    
     6    3   52 1    
     7    3   53 1    
     8    4    5 1    
     9    4    6 1    
    10    5   85 nc   
    11    6    7 1    
    12    6   54 1    
    13    6   55 1    
    14    7    8 1    
    15    7   56 1    
    16    7   57 1    
    17    8    9 1    
    18    8   58 1    
    19    8   59 1    
    20    9   10 1    
    21    9   11 1    
    22    9   14 1    
    23   11   12 1    
    24   11   13 2    
    25   14   15 am   BACKBONE|DICT|INTERRES
    26   14   60 1    
    27   15   16 2    
    28   15   17 1    
    29   17   19 1    
    30   17   21 1    
    31   17   18 1    
    32   19   20 1    
    33   19   61 1    
    34   19   62 1    
    35   20   63 1    
    36   21   22 am   BACKBONE|DICT|INTERRES
    37   21   64 1    
    38   22   23 2    
    39   22   24 1    
    40   24   25 1    
    41   24   26 1    
    42   24   34 1    
    43   26   27 1    
    44   26   65 1    
    45   26   66 1    
    46   27   28 1    
    47   27   67 1    
    48   27   68 1    
    49   28   29 1    
    50   28   69 1    
    51   28   70 1    
    52   29   30 1    
    53   29   31 am   BACKBONE|DICT|INTERRES
    54   30   85 nc   
    55   31   32 2    
    56   31   33 1    
    57   32   85 nc   
    58   33   71 1    
    59   33   72 1    
    60   33   73 1    
    61   34   35 am   BACKBONE|DICT|INTERRES
    62   34   74 1    
    63   35   36 2    
    64   35   37 1    
    65   37   39 1    
    66   37   47 1    
    67   37   38 1    
    68   39   40 1    
    69   39   75 1    
    70   39   76 1    
    71   40   41 1    
    72   40   77 1    
    73   40   78 1    
    74   41   42 1    
    75   41   79 1    
    76   41   80 1    
    77   42   43 1    
    78   42   44 am   BACKBONE|DICT|INTERRES
    79   43   85 nc   
    80   44   45 2    
    81   44   46 1    
    82   45   85 nc   
    83   46   81 1    
    84   46   82 1    
    85   46   83 1    
    86   47   48 am   BACKBONE|DICT|INTERRES
    87   47   84 1    
    88   48   49 2    
    89   48   50 1    
    90   50   86 1    
    91   50   87 1    
    92   50   88 1    
    93   88   89 1    
    94   88   90 1    
    95   88   91 1    
    96   90   92 1    
    97   90   93 1    
    98   90   94 1    
    99   94   95 1    
   100   94   96 1    
   101   94   97 1    
   102   96   98 1    
   103   96   99 1    
   104   96  100 1    
   105  100  101 1    
   106  100  102 1    
   107  100  103 1    
   108  102  104 1    
   109  102  105 1    
   110  102  106 1    
   111  106  107 1    
   112  106  108 1    
   113  106  109 1    
   114  108  110 1    
   115  108  111 1    
   116  108  112 1    
   117  112  113 1    
   118  112  114 1    
   119  112  115 1    
   120  114  116 1    
   121  114  117 1    
   122  114  118 1    
   123  118  119 1    
   124  118  120 1    
   125  118  121 1    
   126  120  122 1    
   127  120  123 1    
   128  120  124 1    
   129  124  125 1    
   130  124  126 1    
   131  124  127 1    
   132  126  128 1    
   133  126  129 1    
   134  126  130 1    
@<TRIPOS>SUBSTRUCTURE
     1 UNK         1 GROUP             0       ****    0 ROOT    
