@<TRIPOS>MOLECULE
179_C1_c1
78   85    1
SMALL
USER_CHARGES


@<TRIPOS>ATOM
      1 Fe1        -0.3485   -0.5537   -0.7176 Fe        1 UNK         0.0000 
      2 O2          1.6753   -0.2698   -1.5921 O.co2     1 UNK         0.0000 
      3 N3          1.7414    0.8367   -2.3231 N.am      1 UNK         0.0000 
      4 C4          2.9929    1.2206   -2.9848 C.3       1 UNK         0.0000 
      5 C5          3.0734    2.7506   -3.1194 C.3       1 UNK         0.0000 
      6 C6          1.7983    3.3268   -3.7339 C.3       1 UNK         0.0000 
      7 C7          0.5143    2.8870   -2.9805 C.3       1 UNK         0.0000 
      8 H8         -0.2376    2.7835   -3.7665 H         1 UNK         0.0000 
      9 C9          0.5381    1.4733   -2.3479 C.2       1 UNK         0.0000 
     10 O10        -0.4712    1.0722   -1.7852 O.co2     1 UNK         0.0000 
     11 N11        -0.1427    3.7652   -1.9888 N.am      1 UNK         0.0000 
     12 C12         0.4595    4.3108   -0.9175 C.2       1 UNK         0.0000 
     13 O13         1.6179    4.7310   -0.9026 O.2       1 UNK         0.0000 
     14 C14        -0.4571    4.7357    0.2558 C.3       1 UNK         0.0000 
     15 H15         0.1810    5.1913    1.0155 H         1 UNK         0.0000 
     16 N16        -1.2315    5.8555   -0.3741 N.4       1 UNK         0.0000 
     17 H17        -0.5851    6.2354   -1.0545 H         1 UNK         0.0000 
     18 H18        -1.9938    5.4081   -0.8680 H         1 UNK         0.0000 
     19 C19        -1.7093    6.9496    0.5924 C.3       1 UNK         0.0000 
     20 C20        -1.3443    3.6576    0.9181 C.3       1 UNK         0.0000 
     21 C21        -0.6735    3.0452    2.1680 C.3       1 UNK         0.0000 
     22 C22        -1.3243    1.7382    2.6692 C.3       1 UNK         0.0000 
     23 N23        -0.9501    0.6167    1.8156 N.am      1 UNK         0.0000 
     24 O24        -1.6801    0.4786    0.7156 O.co2     1 UNK         0.0000 
     25 C25         0.1656   -0.1370    1.9649 C.2       1 UNK         0.0000 
     26 O26         0.4491   -0.9839    1.1227 O.co2     1 UNK         0.0000 
     27 C27         1.1065    0.0800    3.1712 C.3       1 UNK         0.0000 
     28 C28         2.3146   -0.8852    3.2568 C.3       1 UNK         0.0000 
     29 N29         1.9375   -2.2860    3.1289 N.am      1 UNK         0.0000 
     30 C30         2.5038   -3.3427    3.7245 C.2       1 UNK         0.0000 
     31 O31         3.4067   -3.2504    4.5634 O.2       1 UNK         0.0000 
     32 C32         1.9760   -4.7320    3.3175 C.3       1 UNK         0.0000 
     33 N33         1.3673   -4.6699    1.9937 N.am      1 UNK         0.0000 
     34 C34         2.0451   -4.7508    0.8408 C.2       1 UNK         0.0000 
     35 O35         3.2372   -5.0793    0.8189 O.2       1 UNK         0.0000 
     36 C36         1.2735   -4.4616   -0.4787 C.3       1 UNK         0.0000 
     37 H37         1.6636   -5.1566   -1.2267 H         1 UNK         0.0000 
     38 N38        -0.1538   -4.6655   -0.3587 N.2       1 UNK         0.0000 
     39 C39        -0.7068   -3.5345   -0.6468 C.2       1 UNK         0.0000 
     40 O40         0.1590   -2.5022   -0.9110 O.3       1 UNK         0.0000 
     41 C41         1.4642   -3.0245   -0.9359 C.3       1 UNK         0.0000 
     42 C42        -2.1739   -3.2766   -0.7013 C.ar      1 UNK         0.0000 
     43 C43        -2.7282   -2.1513   -1.3537 C.ar      1 UNK         0.0000 
     44 O44        -1.9947   -1.2712   -1.9084 O.co2     1 UNK         0.0000 
     45 C45        -4.1103   -1.9594   -1.3486 C.ar      1 UNK         0.0000 
     46 C46        -4.9651   -2.8898   -0.7476 C.ar      1 UNK         0.0000 
     47 C47        -4.4339   -4.0109   -0.1203 C.ar      1 UNK         0.0000 
     48 C48        -3.0520   -4.1962   -0.0923 C.ar      1 UNK         0.0000 
     49 H49         3.8257    0.8751   -2.3773 H         1 UNK         0.0000 
     50 H50         3.0439    0.7093   -3.9465 H         1 UNK         0.0000 
     51 H51         3.2363    3.1722   -2.1312 H         1 UNK         0.0000 
     52 H52         3.9466    3.0202   -3.7107 H         1 UNK         0.0000 
     53 H53         1.7356    2.9890   -4.7723 H         1 UNK         0.0000 
     54 H54         1.8442    4.4156   -3.7685 H         1 UNK         0.0000 
     55 H55        -1.0452    3.3282   -1.8010 H         1 UNK         0.0000 
     56 H56        -2.4667    6.5058    1.2408 H         1 UNK         0.0000 
     57 H57        -0.8392    7.2970    1.1544 H         1 UNK         0.0000 
     58 H58        -2.1230    7.7438   -0.0302 H         1 UNK         0.0000 
     59 H59        -2.3066    4.0673    1.2299 H         1 UNK         0.0000 
     60 H60        -1.5982    2.8914    0.1787 H         1 UNK         0.0000 
     61 H61        -0.6779    3.7760    2.9754 H         1 UNK         0.0000 
     62 H62         0.3704    2.8193    1.9410 H         1 UNK         0.0000 
     63 H63        -2.4160    1.8306    2.6820 H         1 UNK         0.0000 
     64 H64        -1.0586    1.5492    3.7107 H         1 UNK         0.0000 
     65 H65         1.4523    1.1115    3.1754 H         1 UNK         0.0000 
     66 H66         0.4803   -0.0953    4.0427 H         1 UNK         0.0000 
     67 H67         2.9604   -0.6842    2.4001 H         1 UNK         0.0000 
     68 H68         2.8979   -0.6937    4.1562 H         1 UNK         0.0000 
     69 H69         1.2391   -2.4327    2.3942 H         1 UNK         0.0000 
     70 H70         1.2169   -5.0374    4.0374 H         1 UNK         0.0000 
     71 H71         2.7751   -5.4750    3.3502 H         1 UNK         0.0000 
     72 H72         0.4110   -4.3518    1.8983 H         1 UNK         0.0000 
     73 H73         2.1246   -2.4384   -0.2971 H         1 UNK         0.0000 
     74 H74         1.8627   -2.9638   -1.9495 H         1 UNK         0.0000 
     75 H75        -4.5084   -1.0641   -1.7974 H         1 UNK         0.0000 
     76 H76        -6.0304   -2.7272   -0.7806 H         1 UNK         0.0000 
     77 H77        -5.0777   -4.7445    0.3253 H         1 UNK         0.0000 
     78 H78        -2.6383   -5.0571    0.4205 H         1 UNK         0.0000 
@<TRIPOS>BOND
     1    1    2 nc   
     2    1   10 nc   
     3    1   24 nc   
     4    1   26 nc   
     5    1   40 nc   
     6    1   44 nc   
     7    2    3 1    
     8    3    4 1    
     9    3    9 am   BACKBONE|DICT|INTERRES
    10    4   49 1    
    11    4    5 1    
    12    4   50 1    
    13    5   51 1    
    14    5    6 1    
    15    5   52 1    
    16    6    7 1    
    17    6   53 1    
    18    6   54 1    
    19    7    8 1    
    20    7    9 1    
    21    7   11 1    
    22    9   10 2    
    23   11   12 am   BACKBONE|DICT|INTERRES
    24   11   55 1    
    25   12   13 2    
    26   12   14 1    
    27   14   20 1    
    28   14   15 1    
    29   14   16 1    
    30   16   19 1    
    31   16   17 1    
    32   16   18 1    
    33   19   56 1    
    34   19   57 1    
    35   19   58 1    
    36   20   59 1    
    37   20   21 1    
    38   20   60 1    
    39   21   22 1    
    40   21   61 1    
    41   21   62 1    
    42   22   64 1    
    43   22   23 1    
    44   22   63 1    
    45   23   25 am   BACKBONE|DICT|INTERRES
    46   23   24 1    
    47   25   27 1    
    48   25   26 2    
    49   27   28 1    
    50   27   66 1    
    51   27   65 1    
    52   28   29 1    
    53   28   68 1    
    54   28   67 1    
    55   29   30 am   BACKBONE|DICT|INTERRES
    56   29   69 1    
    57   30   31 2    
    58   30   32 1    
    59   32   71 1    
    60   32   70 1    
    61   32   33 1    
    62   33   34 am   BACKBONE|DICT|INTERRES
    63   33   72 1    
    64   34   35 2    
    65   34   36 1    
    66   36   37 1    
    67   36   38 1    
    68   36   41 1    
    69   38   39 2    
    70   39   40 1    
    71   39   42 1    
    72   40   41 1    
    73   41   73 1    
    74   41   74 1    
    75   42   48 ar   
    76   42   43 ar   
    77   43   44 1    
    78   43   45 ar   
    79   45   46 ar   
    80   45   75 1    
    81   46   47 ar   
    82   46   76 1    
    83   47   48 ar   
    84   47   77 1    
    85   48   78 1    
@<TRIPOS>SUBSTRUCTURE
     1 UNK         1 GROUP             0       ****    0 ROOT    
