@<TRIPOS>MOLECULE
165_c1
134   140    1
SMALL
USER_CHARGES


@<TRIPOS>ATOM
      1 C1         -8.2716   10.0062   -1.2387 C.ar      1 UNK         0.0000 
      2 C2         -7.2507   10.9130   -1.4368 C.ar      1 UNK         0.0000 
      3 C3         -5.9463   10.5394   -1.1359 C.ar      1 UNK         0.0000 
      4 C4         -5.6365    9.2331   -0.7594 C.ar      1 UNK         0.0000 
      5 O5         -4.4164    9.0793   -0.4216 O.co2     1 UNK         0.0000 
      6 C6         -6.6458    8.2320   -0.7280 C.ar      1 UNK         0.0000 
      7 O7         -6.3438    6.9690   -0.6644 O.co2     1 UNK         0.0000 
      8 C8         -8.0068    8.6768   -0.7951 C.ar      1 UNK         0.0000 
      9 C9         -9.1657    7.8641   -0.2135 C.2       1 UNK         0.0000 
     10 O10        -9.0155    7.0075    0.6587 O.2       1 UNK         0.0000 
     11 N11       -10.3941    8.2973   -0.5497 N.am      1 UNK         0.0000 
     12 C12       -11.6878    8.1643    0.1399 C.3       1 UNK         0.0000 
     13 H13       -12.1231    9.1195   -0.1605 H         1 UNK         0.0000 
     14 C14       -11.5827    8.2952    1.6966 C.3       1 UNK         0.0000 
     15 C15       -12.8309    8.6762    2.5408 C.3       1 UNK         0.0000 
     16 C16       -14.0782    7.7614    2.4612 C.3       1 UNK         0.0000 
     17 N17       -14.8964    7.8433    3.6930 N.pl3     1 UNK         0.0000 
     18 C18       -16.1965    8.1419    3.8413 C.cat     1 UNK         0.0000 
     19 N19       -16.7482    8.0661    5.0558 N.pl3     1 UNK         0.0000 
     20 N20       -16.9495    8.5201    2.8065 N.pl3     1 UNK         0.0000 
     21 H21       -16.5503    8.5652    1.8777 H         1 UNK         0.0000 
     22 H22       -17.9281    8.7617    2.8874 H         1 UNK         0.0000 
     23 C23       -12.7236    7.1431   -0.4205 C.2       1 UNK         0.0000 
     24 O24       -13.8379    7.5819   -0.7078 O.2       1 UNK         0.0000 
     25 N25       -12.4913    5.8344   -0.6015 N.am      1 UNK         0.0000 
     26 C26       -11.3683    4.9925   -0.1854 C.3       1 UNK         0.0000 
     27 C27       -11.3505    4.8608    1.3437 C.2       1 UNK         0.0000 
     28 O28       -12.4070    4.7339    1.9677 O.2       1 UNK         0.0000 
     29 N29       -10.1716    4.9513    1.9560 N.am      1 UNK         0.0000 
     30 C30       -10.0479    5.1203    3.3992 C.3       1 UNK         0.0000 
     31 C31        -8.5899    5.0619    3.8587 C.2       1 UNK         0.0000 
     32 O32        -8.3884    4.6532    5.0010 O.2       1 UNK         0.0000 
     33 N33        -7.5874    5.3922    3.0288 N.am      1 UNK         0.0000 
     34 C34        -6.2002    5.0410    3.3405 C.3       1 UNK         0.0000 
     35 H35        -6.0065    5.2660    4.3925 H         1 UNK         0.0000 
     36 C36        -6.0285    3.5014    3.1115 C.3       1 UNK         0.0000 
     37 O37        -4.7764    2.9865    3.5126 O.3       1 UNK         0.0000 
     38 C38        -5.2000    5.9208    2.5569 C.2       1 UNK         0.0000 
     39 O39        -5.4891    6.9561    1.9593 O.co2     1 UNK         0.0000 
     40 N40        -4.0037    5.4037    2.3079 N.am      1 UNK         0.0000 
     41 O41        -3.7657    4.8589    1.1174 O.co2     1 UNK         0.0000 
     42 C42        -2.8220    5.7683    3.1408 C.3       1 UNK         0.0000 
     43 C43        -2.8648    7.2016    3.7958 C.3       1 UNK         0.0000 
     44 C44        -1.5539    7.9430    4.2387 C.3       1 UNK         0.0000 
     45 C45        -1.0045    9.0748    3.2886 C.3       1 UNK         0.0000 
     46 H46        -0.5560    8.5789    2.4366 H         1 UNK         0.0000 
     47 C47        -2.1079   10.0415    2.7725 C.2       1 UNK         0.0000 
     48 O48        -2.6881   10.8140    3.5329 O.2       1 UNK         0.0000 
     49 N49        -2.4019    9.9548    1.4891 N.am      1 UNK         0.0000 
     50 N50         0.1171    9.8595    3.8281 N.am      1 UNK         0.0000 
     51 C51         0.9146   10.5968    3.0352 C.2       1 UNK         0.0000 
     52 O52         0.9219   10.5277    1.8027 O.2       1 UNK         0.0000 
     53 C53         1.9148   11.5509    3.6870 C.3       1 UNK         0.0000 
     54 N54         3.0924   11.3242    2.8684 N.am      1 UNK         0.0000 
     55 C55         4.2544   10.9339    3.3710 C.2       1 UNK         0.0000 
     56 O56         4.6601   11.2412    4.4920 O.2       1 UNK         0.0000 
     57 C57         5.0041    9.8784    2.5735 C.3       1 UNK         0.0000 
     58 N58         4.7841    8.7506    3.4695 N.am      1 UNK         0.0000 
     59 C59         3.9779    7.6876    3.3398 C.2       1 UNK         0.0000 
     60 O60         3.6473    7.0933    4.3665 O.2       1 UNK         0.0000 
     61 C61         3.6593    7.0579    1.9503 C.3       1 UNK         0.0000 
     62 H62         3.5860    7.8394    1.1942 H         1 UNK         0.0000 
     63 C63         4.7690    5.9836    1.5965 C.3       1 UNK         0.0000 
     64 C64         5.8522    5.5029    2.6386 C.3       1 UNK         0.0000 
     65 C65         7.1500    6.3520    2.6687 C.3       1 UNK         0.0000 
     66 N66         8.2659    5.8215    3.4889 N.pl3     1 UNK         0.0000 
     67 C67         8.8236    6.3352    4.5960 C.cat     1 UNK         0.0000 
     68 N68        10.0577    5.9557    4.9379 N.pl3     1 UNK         0.0000 
     69 N69         8.1831    7.2272    5.3493 N.pl3     1 UNK         0.0000 
     70 H70         7.2007    7.4083    5.1926 H         1 UNK         0.0000 
     71 H71         8.5910    7.6351    6.1816 H         1 UNK         0.0000 
     72 N72         2.3831    6.3447    2.0531 N.am      1 UNK         0.0000 
     73 C73         1.1143    6.4543    1.6368 C.2       1 UNK         0.0000 
     74 O74         0.3841    6.1366    2.5695 O.2       1 UNK         0.0000 
     75 C75         0.5891    6.7210    0.1955 C.ar      1 UNK         0.0000 
     76 C76        -0.8132    6.9390   -0.0906 C.ar      1 UNK         0.0000 
     77 O77        -1.6661    7.3206    0.7894 O.co2     1 UNK         0.0000 
     78 C78        -1.2989    6.7351   -1.4208 C.ar      1 UNK         0.0000 
     79 O79        -2.5496    6.6547   -1.7440 O.co2     1 UNK         0.0000 
     80 C80        -0.3719    6.5689   -2.4477 C.ar      1 UNK         0.0000 
     81 C81         1.0008    6.5247   -2.2000 C.ar      1 UNK         0.0000 
     82 C82         1.4763    6.5667   -0.8919 C.ar      1 UNK         0.0000 
     83 H83        -9.2796   10.3779   -1.3656 H         1 UNK         0.0000 
     84 H84        -7.4499   11.9268   -1.7544 H         1 UNK         0.0000 
     85 H85        -5.1598   11.2800   -1.1905 H         1 UNK         0.0000 
     86 H86       -10.3727    8.8896   -1.3552 H         1 UNK         0.0000 
     87 H87       -10.8361    9.0614    1.9123 H         1 UNK         0.0000 
     88 H88       -11.1444    7.4032    2.1210 H         1 UNK         0.0000 
     89 H89       -13.1223    9.6617    2.1750 H         1 UNK         0.0000 
     90 H90       -12.5362    8.8286    3.5814 H         1 UNK         0.0000 
     91 H91       -13.8663    6.7308    2.1831 H         1 UNK         0.0000 
     92 H92       -14.7044    8.1557    1.6632 H         1 UNK         0.0000 
     93 H93       -14.3601    7.5194    4.4887 H         1 UNK         0.0000 
     94 H94       -16.2223    7.7566    5.8633 H         1 UNK         0.0000 
     95 H95       -17.7209    8.2908    5.2228 H         1 UNK         0.0000 
     96 H96       -13.2792    5.3202   -0.9664 H         1 UNK         0.0000 
     97 H97       -10.4244    5.3413   -0.5994 H         1 UNK         0.0000 
     98 H98       -11.5362    3.9984   -0.5993 H         1 UNK         0.0000 
     99 H99        -9.3653    5.2239    1.3961 H         1 UNK         0.0000 
    100 H100      -10.6130    4.3415    3.9161 H         1 UNK         0.0000 
    101 H101      -10.4660    6.0785    3.7096 H         1 UNK         0.0000 
    102 H102       -7.7088    5.8882    2.1467 H         1 UNK         0.0000 
    103 H103       -6.1393    3.2719    2.0538 H         1 UNK         0.0000 
    104 H104       -6.7955    2.9309    3.6326 H         1 UNK         0.0000 
    105 H105       -4.1299    3.4132    2.9175 H         1 UNK         0.0000 
    106 H106       -1.9303    5.6642    2.5303 H         1 UNK         0.0000 
    107 H107       -2.6969    4.9979    3.9013 H         1 UNK         0.0000 
    108 H108       -3.4999    7.1056    4.6742 H         1 UNK         0.0000 
    109 H109       -3.4090    7.8530    3.1226 H         1 UNK         0.0000 
    110 H110       -0.7743    7.2096    4.4361 H         1 UNK         0.0000 
    111 H111       -1.7707    8.3970    5.2026 H         1 UNK         0.0000 
    112 H112       -1.9332    9.2064    0.9590 H         1 UNK         0.0000 
    113 H113       -3.1902   10.4239    1.0676 H         1 UNK         0.0000 
    114 H114        0.1331    9.9504    4.8256 H         1 UNK         0.0000 
    115 H115        2.0462   11.3407    4.7509 H         1 UNK         0.0000 
    116 H116        1.5800   12.5769    3.5510 H         1 UNK         0.0000 
    117 H117        2.8014   11.0222    1.9416 H         1 UNK         0.0000 
    118 H118        6.0559   10.1623    2.5503 H         1 UNK         0.0000 
    119 H119        4.6391    9.7539    1.5525 H         1 UNK         0.0000 
    120 H120        4.8935    9.0464    4.4338 H         1 UNK         0.0000 
    121 H121        5.2732    6.2746    0.6748 H         1 UNK         0.0000 
    122 H122        4.2538    5.0617    1.3183 H         1 UNK         0.0000 
    123 H123        6.1537    4.5317    2.2444 H         1 UNK         0.0000 
    124 H124        5.4572    5.2622    3.6292 H         1 UNK         0.0000 
    125 H125        7.5813    6.2453    1.6733 H         1 UNK         0.0000 
    126 H126        6.9943    7.4249    2.7717 H         1 UNK         0.0000 
    127 H127        8.6907    4.9980    3.0795 H         1 UNK         0.0000 
    128 H128       10.6144    5.3382    4.3598 H         1 UNK         0.0000 
    129 H129       10.5316    6.3316    5.7500 H         1 UNK         0.0000 
    130 H130        2.2168    6.0419    2.9971 H         1 UNK         0.0000 
    131 H131       -0.7342    6.4759   -3.4678 H         1 UNK         0.0000 
    132 H132        1.6725    6.4139   -3.0426 H         1 UNK         0.0000 
    133 H133        2.5399    6.4339   -0.7299 H         1 UNK         0.0000 
    134 Fe134      -4.0066    6.9057    0.0485 Fe        1 UNK         0.0000 
@<TRIPOS>BOND
     1    1    2 ar   
     2    1    8 ar   
     3    1   83 1    
     4    2    3 ar   
     5    2   84 1    
     6    3    4 ar   
     7    3   85 1    
     8    4    5 1    
     9    4    6 ar   
    10    5  134 nc   
    11    6    7 1    
    12    6    8 ar   
    13    7  134 nc   
    14    8    9 1    
    15    9   10 2    
    16    9   11 am   BACKBONE|DICT|INTERRES
    17   11   86 1    
    18   11   12 1    
    19   12   14 1    
    20   12   23 1    
    21   12   13 1    
    22   14   15 1    
    23   14   87 1    
    24   14   88 1    
    25   15   16 1    
    26   15   89 1    
    27   15   90 1    
    28   16   17 1    
    29   16   91 1    
    30   16   92 1    
    31   17   18 ar   
    32   17   93 1    
    33   18   19 ar   
    34   18   20 ar   
    35   19   94 1    
    36   19   95 1    
    37   20   21 1    
    38   20   22 1    
    39   23   24 2    
    40   23   25 am   BACKBONE|DICT|INTERRES
    41   25   26 1    
    42   25   96 1    
    43   26   27 1    
    44   26   97 1    
    45   26   98 1    
    46   27   28 2    
    47   27   29 am   BACKBONE|DICT|INTERRES
    48   29   30 1    
    49   29   99 1    
    50   30   31 1    
    51   30  100 1    
    52   30  101 1    
    53   31   32 2    
    54   31   33 am   BACKBONE|DICT|INTERRES
    55   33   34 1    
    56   33  102 1    
    57   34   35 1    
    58   34   36 1    
    59   34   38 1    
    60   36   37 1    
    61   36  103 1    
    62   36  104 1    
    63   37  105 1    
    64   38   39 2    
    65   38   40 am   BACKBONE|DICT|INTERRES
    66   39  134 nc   
    67   40   41 1    
    68   40   42 1    
    69   41  134 nc   
    70   42   43 1    
    71   42  106 1    
    72   42  107 1    
    73   43   44 1    
    74   43  108 1    
    75   43  109 1    
    76   44   45 1    
    77   44  110 1    
    78   44  111 1    
    79   45   46 1    
    80   45   47 1    
    81   45   50 1    
    82   47   48 2    
    83   47   49 am   BACKBONE|DICT|INTERRES
    84   49  112 1    
    85   49  113 1    
    86   50   51 am   BACKBONE|DICT|INTERRES
    87   50  114 1    
    88   51   52 2    
    89   51   53 1    
    90   53   54 1    
    91   53  115 1    
    92   53  116 1    
    93   54   55 am   BACKBONE|DICT|INTERRES
    94   54  117 1    
    95   55   56 2    
    96   55   57 1    
    97   57   58 1    
    98   57  118 1    
    99   57  119 1    
   100   58   59 am   BACKBONE|DICT|INTERRES
   101   58  120 1    
   102   59   60 2    
   103   59   61 1    
   104   61   62 1    
   105   61   63 1    
   106   61   72 1    
   107   63   64 1    
   108   63  121 1    
   109   63  122 1    
   110   64   65 1    
   111   64  123 1    
   112   64  124 1    
   113   65   66 1    
   114   65  125 1    
   115   65  126 1    
   116   66   67 ar   
   117   66  127 1    
   118   67   68 ar   
   119   67   69 ar   
   120   68  128 1    
   121   68  129 1    
   122   69   70 1    
   123   69   71 1    
   124   72   73 am   BACKBONE|DICT|INTERRES
   125   72  130 1    
   126   73   74 2    
   127   73   75 1    
   128   75   76 ar   
   129   75   82 ar   
   130   76   77 1    
   131   76   78 ar   
   132   77  134 nc   
   133   78   79 1    
   134   78   80 ar   
   135   79  134 nc   
   136   80   81 ar   
   137   80  131 1    
   138   81   82 ar   
   139   81  132 1    
   140   82  133 1    
@<TRIPOS>SUBSTRUCTURE
     1 UNK         1 GROUP             0       ****    0 ROOT    
