@<TRIPOS>MOLECULE
239_A_c1
91   99    1
SMALL
USER_CHARGES


@<TRIPOS>ATOM
      1 Fe1         0.0127    0.0480    0.0077 Fe        1 UNK         0.0000 
      2 O2          0.0333    2.4133    0.1443 O.co2     1 UNK         0.0000 
      3 C3          1.0392    3.3706    0.0884 C.3       1 UNK         0.0000 
      4 C4          1.2115    3.6945    1.5700 C.3       1 UNK         0.0000 
      5 C5          0.3711    4.4356   -0.7828 C.3       1 UNK         0.0000 
      6 C6          1.5738    5.2252   -1.2817 C.3       1 UNK         0.0000 
      7 H7          1.8257    5.9869   -0.5382 H         1 UNK         0.0000 
      8 C8          1.3155    6.0004   -2.6097 C.2       1 UNK         0.0000 
      9 O9          1.1743    5.4591   -3.7021 O.2       1 UNK         0.0000 
     10 N10         1.3635    7.3251   -2.5969 N.am      1 UNK         0.0000 
     11 N11         2.6960    4.2946   -1.4166 N.3       1 UNK         0.0000 
     12 C12         2.3280    3.0136   -0.7686 C.3       1 UNK         0.0000 
     13 C13         3.5813    2.1442   -0.3152 C.ar      1 UNK         0.0000 
     14 N14         4.8458    2.7116   -0.3959 N.ar      1 UNK         0.0000 
     15 C15         5.9523    1.9489   -0.2527 C.ar      1 UNK         0.0000 
     16 C16         5.9120    0.5914    0.0218 C.ar      1 UNK         0.0000 
     17 C17         4.6606   -0.0018    0.1429 C.ar      1 UNK         0.0000 
     18 C18         3.5049    0.7500   -0.0680 C.ar      1 UNK         0.0000 
     19 O19         2.4346    0.0962   -0.1192 O.co2     1 UNK         0.0000 
     20 H20         0.2623    3.9172    2.0598 H         1 UNK         0.0000 
     21 H21         1.8671    4.5394    1.7247 H         1 UNK         0.0000 
     22 H22         1.6422    2.8411    2.0836 H         1 UNK         0.0000 
     23 H23        -0.3590    5.0320   -0.2310 H         1 UNK         0.0000 
     24 H24        -0.1605    4.0091   -1.6411 H         1 UNK         0.0000 
     25 H25         1.3177    7.7781   -3.4944 H         1 UNK         0.0000 
     26 H26         1.6974    7.7791   -1.7670 H         1 UNK         0.0000 
     27 H27         6.9007    2.4440   -0.3947 H         1 UNK         0.0000 
     28 H28         6.7936   -0.0159    0.1089 H         1 UNK         0.0000 
     29 H29         4.5894   -1.0550    0.3391 H         1 UNK         0.0000 
     30 O30         0.0148   -2.3371    0.0099 O.co2     1 UNK         0.0000 
     31 C31        -0.0629   -3.3006    1.0172 C.3       1 UNK         0.0000 
     32 C32         1.3980   -3.6363    1.3190 C.3       1 UNK         0.0000 
     33 C33        -0.8612   -4.4012    0.3117 C.3       1 UNK         0.0000 
     34 C34        -1.4383   -5.1824    1.4872 C.3       1 UNK         0.0000 
     35 H35        -0.7164   -5.9407    1.8057 H         1 UNK         0.0000 
     36 C36        -2.7542   -5.9523    1.1615 C.2       1 UNK         0.0000 
     37 O37        -3.8437   -5.4060    1.0326 O.2       1 UNK         0.0000 
     38 N38        -2.7523   -7.2759    1.1578 N.am      1 UNK         0.0000 
     39 N39        -1.6594   -4.2341    2.5771 N.3       1 UNK         0.0000 
     40 C40        -0.9931   -2.9489    2.2524 C.3       1 UNK         0.0000 
     41 C41        -0.6381   -2.0785    3.5419 C.ar      1 UNK         0.0000 
     42 N42        -0.9832   -2.5972    4.7835 N.ar      1 UNK         0.0000 
     43 C43        -0.9509   -1.8275    5.8930 C.ar      1 UNK         0.0000 
     44 C44        -0.5705   -0.4929    5.8750 C.ar      1 UNK         0.0000 
     45 C45        -0.1859    0.0468    4.6517 C.ar      1 UNK         0.0000 
     46 C46        -0.2123   -0.7206    3.4865 C.ar      1 UNK         0.0000 
     47 O47         0.1001   -0.1159    2.4269 O.co2     1 UNK         0.0000 
     48 H48         1.9577   -3.8777    0.4170 H         1 UNK         0.0000 
     49 H49         1.4917   -4.4742    1.9995 H         1 UNK         0.0000 
     50 H50         1.8840   -2.7854    1.7813 H         1 UNK         0.0000 
     51 H51        -0.2413   -5.0028   -0.3582 H         1 UNK         0.0000 
     52 H52        -1.6819   -4.0060   -0.2966 H         1 UNK         0.0000 
     53 H53        -3.6617   -7.6987    1.0685 H         1 UNK         0.0000 
     54 H54        -1.9623   -7.7444    1.5579 H         1 UNK         0.0000 
     55 H55        -1.2521   -2.2947    6.8120 H         1 UNK         0.0000 
     56 H56        -0.5796    0.1340    6.7518 H         1 UNK         0.0000 
     57 H57         0.0923    1.0860    4.5976 H         1 UNK         0.0000 
     58 O58        -2.3552    0.0379   -0.0008 O.co2     1 UNK         0.0000 
     59 C59        -3.3027   -0.0336   -1.0206 C.3       1 UNK         0.0000 
     60 C60        -3.5517    1.4332   -1.3771 C.3       1 UNK         0.0000 
     61 C61        -4.4505   -0.7654   -0.3165 C.3       1 UNK         0.0000 
     62 C62        -5.2251   -1.3516   -1.4936 C.3       1 UNK         0.0000 
     63 H63        -5.9446   -0.6080   -1.8483 H         1 UNK         0.0000 
     64 C64        -6.0484   -2.6236   -1.1360 C.2       1 UNK         0.0000 
     65 O65        -5.5455   -3.7261   -0.9499 O.2       1 UNK         0.0000 
     66 N66        -7.3697   -2.5689   -1.1565 N.am      1 UNK         0.0000 
     67 N67        -4.2619   -1.6462   -2.5533 N.3       1 UNK         0.0000 
     68 C68        -2.9623   -1.0120   -2.2219 C.3       1 UNK         0.0000 
     69 C69        -2.0570   -0.7407   -3.5121 C.ar      1 UNK         0.0000 
     70 N70        -2.5230   -1.2245   -4.7300 N.ar      1 UNK         0.0000 
     71 C71        -1.7209   -1.2677   -5.8152 C.ar      1 UNK         0.0000 
     72 C72        -0.3929   -0.8666   -5.7883 C.ar      1 UNK         0.0000 
     73 C73         0.0992   -0.3533   -4.5903 C.ar      1 UNK         0.0000 
     74 C74        -0.7175   -0.2611   -3.4568 C.ar      1 UNK         0.0000 
     75 O75        -0.1817    0.2028   -2.4163 O.co2     1 UNK         0.0000 
     76 H76        -3.7790    2.0327   -0.4972 H         1 UNK         0.0000 
     77 H77        -4.3664    1.5519   -2.0866 H         1 UNK         0.0000 
     78 H78        -2.6586    1.8543   -1.8286 H         1 UNK         0.0000 
     79 H79        -5.0357   -0.0958    0.3203 H         1 UNK         0.0000 
     80 H80        -4.1004   -1.5810    0.3246 H         1 UNK         0.0000 
     81 H81        -7.8286   -3.4566   -1.0357 H         1 UNK         0.0000 
     82 H82        -7.7995   -1.7765   -1.5949 H         1 UNK         0.0000 
     83 H83        -2.1697   -1.6369   -6.7186 H         1 UNK         0.0000 
     84 H84         0.2558   -0.9429   -6.6482 H         1 UNK         0.0000 
     85 H85         1.1339   -0.0594   -4.5313 H         1 UNK         0.0000 
     86 H86         2.7677    4.0326   -2.3885 H         1 UNK         0.0000 
     87 H87         1.9266    2.4044   -1.5819 H         1 UNK         0.0000 
     88 H88        -2.6365   -3.9795    2.5605 H         1 UNK         0.0000 
     89 H89        -1.7790   -2.3477    1.7919 H         1 UNK         0.0000 
     90 H90        -4.0296   -2.6276   -2.4985 H         1 UNK         0.0000 
     91 H91        -2.3933   -1.8006   -1.7228 H         1 UNK         0.0000 
@<TRIPOS>BOND
     1    1    2 nc   
     2    1   19 nc   
     3    1   30 nc   
     4    1   47 nc   
     5    1   58 nc   
     6    1   75 nc   
     7    2    3 1    
     8    3    4 1    
     9    3    5 1    
    10    3   12 1    
    11    4   21 1    
    12    4   20 1    
    13    4   22 1    
    14    5   23 1    
    15    5    6 1    
    16    5   24 1    
    17    6    7 1    
    18    6    8 1    
    19    6   11 1    
    20    8    9 2    
    21    8   10 am   BACKBONE|DICT|INTERRES
    22   10   26 1    
    23   10   25 1    
    24   11   12 1    
    25   11   86 1    
    26   12   13 1    
    27   12   87 1    
    28   13   18 ar   
    29   13   14 ar   
    30   14   15 ar   
    31   15   16 ar   
    32   15   27 1    
    33   16   17 ar   
    34   16   28 1    
    35   17   29 1    
    36   17   18 ar   
    37   18   19 1    
    38   30   31 1    
    39   31   32 1    
    40   31   40 1    
    41   31   33 1    
    42   32   50 1    
    43   32   49 1    
    44   32   48 1    
    45   33   34 1    
    46   33   51 1    
    47   33   52 1    
    48   34   35 1    
    49   34   39 1    
    50   34   36 1    
    51   36   38 am   BACKBONE|DICT|INTERRES
    52   36   37 2    
    53   38   54 1    
    54   38   53 1    
    55   39   40 1    
    56   39   88 1    
    57   40   41 1    
    58   40   89 1    
    59   41   42 ar   
    60   41   46 ar   
    61   42   43 ar   
    62   43   55 1    
    63   43   44 ar   
    64   44   56 1    
    65   44   45 ar   
    66   45   46 ar   
    67   45   57 1    
    68   46   47 1    
    69   58   59 1    
    70   59   61 1    
    71   59   60 1    
    72   59   68 1    
    73   60   76 1    
    74   60   77 1    
    75   60   78 1    
    76   61   80 1    
    77   61   79 1    
    78   61   62 1    
    79   62   63 1    
    80   62   64 1    
    81   62   67 1    
    82   64   65 2    
    83   64   66 am   BACKBONE|DICT|INTERRES
    84   66   81 1    
    85   66   82 1    
    86   67   68 1    
    87   67   90 1    
    88   68   69 1    
    89   68   91 1    
    90   69   74 ar   
    91   69   70 ar   
    92   70   71 ar   
    93   71   72 ar   
    94   71   83 1    
    95   72   73 ar   
    96   72   84 1    
    97   73   85 1    
    98   73   74 ar   
    99   74   75 1    
@<TRIPOS>SUBSTRUCTURE
     1 UNK         1 GROUP             0       ****    0 ROOT    
