@<TRIPOS>MOLECULE
130_c1
101   106    1
SMALL
USER_CHARGES


@<TRIPOS>ATOM
      1 Fe1        -1.7132   -4.7668    0.2186 Fe        1 UNK         0.0000 
      2 O2         -0.6261   -6.6966    1.6541 O.co2     1 UNK         0.0000 
      3 C3          0.7689   -6.5732    1.6010 C.3       1 UNK         0.0000 
      4 C4          1.4668   -7.7374    0.8880 C.3       1 UNK         0.0000 
      5 N5          1.1617   -5.2260    1.0936 N.3       1 UNK         0.0000 
      6 O6          0.6887   -4.9932   -0.2468 O.co2     1 UNK         0.0000 
      7 C7          2.6217   -4.9836    1.0661 C.3       1 UNK         0.0000 
      8 C8          2.9735   -3.4902    1.2251 C.3       1 UNK         0.0000 
      9 C9          2.5378   -2.5824    0.0550 C.3       1 UNK         0.0000 
     10 C10         3.0246   -1.1236    0.1667 C.3       1 UNK         0.0000 
     11 H11         4.0262   -1.1992    0.5919 H         1 UNK         0.0000 
     12 N12         3.3720   -0.4363   -1.0805 N.am      1 UNK         0.0000 
     13 C13         2.8150   -0.1392   -2.2669 C.2       1 UNK         0.0000 
     14 O14         3.5329    0.4631   -3.0693 O.2       1 UNK         0.0000 
     15 C15         1.3643   -0.4342   -2.7539 C.3       1 UNK         0.0000 
     16 H16         1.5963   -0.6620   -3.7948 H         1 UNK         0.0000 
     17 C17         0.5890   -1.7051   -2.3333 C.3       1 UNK         0.0000 
     18 C18        -0.6013   -1.9875   -3.2878 C.3       1 UNK         0.0000 
     19 C19        -1.0658   -3.4597   -3.4881 C.3       1 UNK         0.0000 
     20 N20        -1.6280   -4.1929   -2.3246 N.3       1 UNK         0.0000 
     21 O21        -2.6601   -3.3463   -1.8227 O.co2     1 UNK         0.0000 
     22 C22        -2.1782   -5.5440   -2.6529 C.3       1 UNK         0.0000 
     23 O23        -2.6049   -6.1901   -1.4797 O.co2     1 UNK         0.0000 
     24 C24        -3.2836   -5.5039   -3.7188 C.3       1 UNK         0.0000 
     25 N25         0.4742    0.7275   -2.9139 N.am      1 UNK         0.0000 
     26 C26         0.5475    1.9461   -2.3586 C.2       1 UNK         0.0000 
     27 O27         1.4650    2.3274   -1.6212 O.2       1 UNK         0.0000 
     28 C28        -0.5527    2.9424   -2.7631 C.3       1 UNK         0.0000 
     29 N29        -0.0916    4.2192   -2.2257 N.am      1 UNK         0.0000 
     30 C30        -0.6073    4.7709   -1.1312 C.2       1 UNK         0.0000 
     31 O31        -1.7895    4.6878   -0.7942 O.2       1 UNK         0.0000 
     32 C32         0.4150    5.4615   -0.2162 C.3       1 UNK         0.0000 
     33 H33         1.3922    5.3597   -0.6965 H         1 UNK         0.0000 
     34 C34         0.1775    6.9730    0.0267 C.3       1 UNK         0.0000 
     35 O35        -0.9371    7.2682    0.8584 O.3       1 UNK         0.0000 
     36 N36         0.4429    4.7435    1.0476 N.am      1 UNK         0.0000 
     37 C37         1.5402    4.4078    1.7314 C.2       1 UNK         0.0000 
     38 O38         2.6853    4.6899    1.3707 O.2       1 UNK         0.0000 
     39 C39         1.3222    3.7013    3.0787 C.3       1 UNK         0.0000 
     40 H40         2.1335    4.0555    3.7149 H         1 UNK         0.0000 
     41 C41        -0.0224    4.1012    3.7422 C.3       1 UNK         0.0000 
     42 N42         1.4778    2.2436    2.9522 N.am      1 UNK         0.0000 
     43 C43         1.4116    1.3450    3.9457 C.2       1 UNK         0.0000 
     44 O44         1.0950    1.6585    5.0992 O.2       1 UNK         0.0000 
     45 C45         1.9017   -0.1119    3.7218 C.3       1 UNK         0.0000 
     46 H46         2.7440   -0.1368    4.4185 H         1 UNK         0.0000 
     47 N47         2.5556   -0.4906    2.4555 N.am      1 UNK         0.0000 
     48 C48         2.2353   -0.2555    1.1692 C.2       1 UNK         0.0000 
     49 O49         1.4504    0.6017    0.7889 O.2       1 UNK         0.0000 
     50 C50         0.9411   -1.2153    4.2540 C.3       1 UNK         0.0000 
     51 C51        -0.1530   -1.6097    3.2553 C.3       1 UNK         0.0000 
     52 C52        -0.9783   -2.8817    3.5975 C.3       1 UNK         0.0000 
     53 N53        -2.1936   -3.0190    2.7499 N.3       1 UNK         0.0000 
     54 O54        -1.7792   -2.8007    1.3806 O.co2     1 UNK         0.0000 
     55 C55        -3.0760   -4.2301    2.9514 C.3       1 UNK         0.0000 
     56 O56        -3.2834   -5.0180    1.8047 O.co2     1 UNK         0.0000 
     57 C57        -4.4129   -3.7394    3.4972 C.3       1 UNK         0.0000 
     58 H58         1.0744   -8.6924    1.2355 H         1 UNK         0.0000 
     59 H59         1.2935   -7.6930   -0.1815 H         1 UNK         0.0000 
     60 H60         2.5469   -7.7516    1.0439 H         1 UNK         0.0000 
     61 H61         3.0321   -5.3594    0.1224 H         1 UNK         0.0000 
     62 H62         3.1856   -5.5169    1.8456 H         1 UNK         0.0000 
     63 H63         4.0504   -3.4348    1.3451 H         1 UNK         0.0000 
     64 H64         2.5323   -3.1368    2.1501 H         1 UNK         0.0000 
     65 H65         1.4494   -2.5964    0.0321 H         1 UNK         0.0000 
     66 H66         2.8800   -3.0216   -0.8837 H         1 UNK         0.0000 
     67 H67         4.2639    0.0106   -0.9982 H         1 UNK         0.0000 
     68 H68         1.2327   -2.5836   -2.3054 H         1 UNK         0.0000 
     69 H69         0.1713   -1.5645   -1.3347 H         1 UNK         0.0000 
     70 H70        -1.4610   -1.3745   -3.0127 H         1 UNK         0.0000 
     71 H71        -0.3364   -1.6431   -4.2889 H         1 UNK         0.0000 
     72 H72        -1.8113   -3.3851   -4.2804 H         1 UNK         0.0000 
     73 H73        -0.2232   -4.0196   -3.8894 H         1 UNK         0.0000 
     74 H74        -3.7813   -6.4704   -3.7793 H         1 UNK         0.0000 
     75 H75        -4.0536   -4.7708   -3.4719 H         1 UNK         0.0000 
     76 H76        -2.8916   -5.2618   -4.7096 H         1 UNK         0.0000 
     77 H77        -0.3239    0.5094   -3.4911 H         1 UNK         0.0000 
     78 H78        -1.5199    2.6304   -2.3662 H         1 UNK         0.0000 
     79 H79        -0.6297    3.0051   -3.8488 H         1 UNK         0.0000 
     80 H80         0.9187    4.2687   -2.2706 H         1 UNK         0.0000 
     81 H81         0.0300    7.4749   -0.9313 H         1 UNK         0.0000 
     82 H82         1.0653    7.4250    0.4714 H         1 UNK         0.0000 
     83 H83        -1.7277    7.3412    0.3136 H         1 UNK         0.0000 
     84 H84        -0.4648    4.4700    1.3975 H         1 UNK         0.0000 
     85 H85        -0.2390    5.1640    3.6259 H         1 UNK         0.0000 
     86 H86        -0.0089    3.9149    4.8149 H         1 UNK         0.0000 
     87 H87        -0.8590    3.5424    3.3225 H         1 UNK         0.0000 
     88 H88         1.6386    1.8805    2.0050 H         1 UNK         0.0000 
     89 H89         3.1951   -1.2581    2.5622 H         1 UNK         0.0000 
     90 H90         1.5259   -2.0996    4.5037 H         1 UNK         0.0000 
     91 H91         0.4701   -0.9007    5.1852 H         1 UNK         0.0000 
     92 H92        -0.7952   -0.7834    2.9745 H         1 UNK         0.0000 
     93 H93         0.3571   -1.8890    2.3399 H         1 UNK         0.0000 
     94 H94        -0.3335   -3.7564    3.4525 H         1 UNK         0.0000 
     95 H95        -1.2206   -2.8860    4.6664 H         1 UNK         0.0000 
     96 H96        -4.2987   -3.1672    4.4063 H         1 UNK         0.0000 
     97 H97        -5.0736   -4.5732    3.6853 H         1 UNK         0.0000 
     98 H98        -4.8875   -3.1161    2.7546 H         1 UNK         0.0000 
     99 H99         1.1673   -6.6047    2.6164 H         1 UNK         0.0000 
    100 H100       -1.3347   -6.0558   -3.1247 H         1 UNK         0.0000 
    101 H101       -2.6403   -4.8411    3.7593 H         1 UNK         0.0000 
@<TRIPOS>BOND
     1    1    2 nc   
     2    1    6 nc   
     3    1   21 nc   
     4    1   23 nc   
     5    1   54 nc   
     6    1   56 nc   
     7    2    3 1    
     8    3    4 1    
     9    3    5 1    
    10    3   99 1    
    11    4   58 1    
    12    4   60 1    
    13    4   59 1    
    14    5    6 1    
    15    5    7 1    
    16    7    8 1    
    17    7   62 1    
    18    7   61 1    
    19    8   63 1    
    20    8   64 1    
    21    8    9 1    
    22    9   10 1    
    23    9   65 1    
    24    9   66 1    
    25   10   11 1    
    26   10   48 1    
    27   10   12 1    
    28   12   67 1    
    29   12   13 am   BACKBONE|DICT|INTERRES
    30   13   14 2    
    31   13   15 1    
    32   15   16 1    
    33   15   17 1    
    34   15   25 1    
    35   17   69 1    
    36   17   18 1    
    37   17   68 1    
    38   18   70 1    
    39   18   19 1    
    40   18   71 1    
    41   19   20 1    
    42   19   72 1    
    43   19   73 1    
    44   20   22 1    
    45   20   21 1    
    46   22   23 1    
    47   22   24 1    
    48   22  100 1    
    49   24   74 1    
    50   24   75 1    
    51   24   76 1    
    52   25   26 am   BACKBONE|DICT|INTERRES
    53   25   77 1    
    54   26   27 2    
    55   26   28 1    
    56   28   78 1    
    57   28   29 1    
    58   28   79 1    
    59   29   30 am   BACKBONE|DICT|INTERRES
    60   29   80 1    
    61   30   31 2    
    62   30   32 1    
    63   32   33 1    
    64   32   36 1    
    65   32   34 1    
    66   34   35 1    
    67   34   82 1    
    68   34   81 1    
    69   35   83 1    
    70   36   84 1    
    71   36   37 am   BACKBONE|DICT|INTERRES
    72   37   39 1    
    73   37   38 2    
    74   39   40 1    
    75   39   41 1    
    76   39   42 1    
    77   41   85 1    
    78   41   86 1    
    79   41   87 1    
    80   42   43 am   BACKBONE|DICT|INTERRES
    81   42   88 1    
    82   43   45 1    
    83   43   44 2    
    84   45   50 1    
    85   45   46 1    
    86   45   47 1    
    87   47   89 1    
    88   47   48 am   BACKBONE|DICT|INTERRES
    89   48   49 2    
    90   50   90 1    
    91   50   91 1    
    92   50   51 1    
    93   51   52 1    
    94   51   92 1    
    95   51   93 1    
    96   52   94 1    
    97   52   95 1    
    98   52   53 1    
    99   53   55 1    
   100   53   54 1    
   101   55   56 1    
   102   55   57 1    
   103   55  101 1    
   104   57   97 1    
   105   57   96 1    
   106   57   98 1    
@<TRIPOS>SUBSTRUCTURE
     1 UNK         1 GROUP             0       ****    0 ROOT    
