@<TRIPOS>MOLECULE
129_c1
94   99    1
SMALL
USER_CHARGES


@<TRIPOS>ATOM
      1 Fe1        -0.5251   -4.5903    1.5445 Fe        1 UNK         0.0000 
      2 C2          1.6611   -4.4108    5.2374 C.3       1 UNK         0.0000 
      3 C3          0.6590   -4.2939    4.0876 C.2       1 UNK         0.0000 
      4 O4          0.1833   -5.3332    3.6008 O.co2     1 UNK         0.0000 
      5 N5          0.3017   -3.0861    3.5538 N.am      1 UNK         0.0000 
      6 O6         -0.6716   -2.9021    2.6509 O.co2     1 UNK         0.0000 
      7 C7          1.0742   -1.8376    3.8406 C.3       1 UNK         0.0000 
      8 C8          0.2444   -0.5264    3.9007 C.3       1 UNK         0.0000 
      9 C9         -0.0242    0.1168    2.5131 C.3       1 UNK         0.0000 
     10 C10        -1.4252    0.7813    2.4105 C.3       1 UNK         0.0000 
     11 H11        -2.1695    0.1276    2.8639 H         1 UNK         0.0000 
     12 C12        -1.4772    2.1229    3.1528 C.2       1 UNK         0.0000 
     13 O13        -2.3349    2.3330    4.0036 O.2       1 UNK         0.0000 
     14 N14        -0.6142    3.0368    2.7060 N.am      1 UNK         0.0000 
     15 C15        -0.5977    4.4598    2.9896 C.3       1 UNK         0.0000 
     16 H16        -1.6187    4.8440    3.0466 H         1 UNK         0.0000 
     17 C17         0.1425    4.7351    4.3073 C.3       1 UNK         0.0000 
     18 C18         0.1231    5.0319    1.7665 C.2       1 UNK         0.0000 
     19 O19         1.2660    4.6447    1.5253 O.2       1 UNK         0.0000 
     20 N20        -0.5981    5.7862    0.9350 N.am      1 UNK         0.0000 
     21 C21        -0.2477    5.9402   -0.4737 C.3       1 UNK         0.0000 
     22 C22        -1.2730    5.0772   -1.2132 C.2       1 UNK         0.0000 
     23 O23        -2.4618    5.1608   -0.8989 O.2       1 UNK         0.0000 
     24 N24        -0.8330    4.2702   -2.1811 N.am      1 UNK         0.0000 
     25 C25        -1.6748    3.2967   -2.8643 C.3       1 UNK         0.0000 
     26 C26        -0.8093    2.0465   -3.0151 C.2       1 UNK         0.0000 
     27 O27         0.3210    2.1420   -3.4891 O.2       1 UNK         0.0000 
     28 N28        -1.3422    0.8938   -2.6017 N.am      1 UNK         0.0000 
     29 C29        -0.7638   -0.4417   -2.6860 C.3       1 UNK         0.0000 
     30 H30        -0.4980   -0.5328   -3.7416 H         1 UNK         0.0000 
     31 C31         0.5589   -0.6613   -1.8973 C.3       1 UNK         0.0000 
     32 C32         1.4741   -1.7853   -2.4551 C.3       1 UNK         0.0000 
     33 C33         1.0911   -3.2555   -2.1271 C.3       1 UNK         0.0000 
     34 N34         1.5108   -3.8127   -0.8103 N.am      1 UNK         0.0000 
     35 O35         1.7810   -2.8895    0.1251 O.co2     1 UNK         0.0000 
     36 C36         1.5321   -5.1612   -0.5925 C.2       1 UNK         0.0000 
     37 O37         1.6302   -5.6404    0.5514 O.co2     1 UNK         0.0000 
     38 C38         1.2577   -6.1490   -1.7271 C.3       1 UNK         0.0000 
     39 C39        -1.8708   -1.4975   -2.4334 C.2       1 UNK         0.0000 
     40 O40        -2.2484   -2.1268   -3.4153 O.2       1 UNK         0.0000 
     41 N41        -2.4298   -1.7651   -1.2297 N.am      1 UNK         0.0000 
     42 C42        -2.3049   -1.1904    0.1258 C.3       1 UNK         0.0000 
     43 H43        -1.3042   -1.4555    0.4463 H         1 UNK         0.0000 
     44 C44        -2.4847    0.3464    0.1497 C.2       1 UNK         0.0000 
     45 O45        -3.2340    0.8608   -0.6794 O.2       1 UNK         0.0000 
     46 N46        -1.8833    1.1146    1.0598 N.am      1 UNK         0.0000 
     47 C47        -3.3443   -1.7871    1.1299 C.3       1 UNK         0.0000 
     48 C48        -4.0953   -3.1018    0.7936 C.3       1 UNK         0.0000 
     49 C49        -3.5408   -4.4484    1.3602 C.3       1 UNK         0.0000 
     50 N50        -2.6173   -5.2808    0.5281 N.am      1 UNK         0.0000 
     51 O51        -2.6693   -4.9457   -0.7696 O.co2     1 UNK         0.0000 
     52 C52        -2.5686   -6.5868    0.9361 C.2       1 UNK         0.0000 
     53 O53        -2.1829   -6.8438    2.0775 O.co2     1 UNK         0.0000 
     54 C54        -2.9786   -7.7304    0.0088 C.3       1 UNK         0.0000 
     55 H55         1.3283   -3.8205    6.0915 H         1 UNK         0.0000 
     56 H56         2.6603   -4.0806    4.9479 H         1 UNK         0.0000 
     57 H57         1.7351   -5.4464    5.5750 H         1 UNK         0.0000 
     58 H58         1.8444   -1.7215    3.0709 H         1 UNK         0.0000 
     59 H59         1.6542   -1.8994    4.7621 H         1 UNK         0.0000 
     60 H60        -0.6887   -0.7412    4.4212 H         1 UNK         0.0000 
     61 H61         0.7560    0.2097    4.5219 H         1 UNK         0.0000 
     62 H62         0.1111   -0.6228    1.7297 H         1 UNK         0.0000 
     63 H63         0.7646    0.8414    2.3018 H         1 UNK         0.0000 
     64 H64         0.0771    2.7704    2.0157 H         1 UNK         0.0000 
     65 H65         0.1941    5.8055    4.5045 H         1 UNK         0.0000 
     66 H66        -0.3718    4.2727    5.1505 H         1 UNK         0.0000 
     67 H67         1.1643    4.3539    4.2866 H         1 UNK         0.0000 
     68 H68        -1.5815    5.9109    1.1327 H         1 UNK         0.0000 
     69 H69         0.7729    5.6286   -0.7064 H         1 UNK         0.0000 
     70 H70        -0.3571    6.9825   -0.7730 H         1 UNK         0.0000 
     71 H71         0.1522    4.2027   -2.4035 H         1 UNK         0.0000 
     72 H72        -2.5922    3.0725   -2.3159 H         1 UNK         0.0000 
     73 H73        -1.9571    3.6742   -3.8478 H         1 UNK         0.0000 
     74 H74        -2.2646    0.9105   -2.1687 H         1 UNK         0.0000 
     75 H75         0.3814   -0.8009   -0.8337 H         1 UNK         0.0000 
     76 H76         1.1459    0.2556   -1.9513 H         1 UNK         0.0000 
     77 H77         2.4939   -1.6152   -2.1110 H         1 UNK         0.0000 
     78 H78         1.5208   -1.6672   -3.5387 H         1 UNK         0.0000 
     79 H79         0.0128   -3.3756   -2.1998 H         1 UNK         0.0000 
     80 H80         1.4800   -3.8607   -2.9457 H         1 UNK         0.0000 
     81 H81         2.1577   -6.3083   -2.3259 H         1 UNK         0.0000 
     82 H82         0.9565   -7.1148   -1.3173 H         1 UNK         0.0000 
     83 H83         0.4510   -5.8245   -2.3882 H         1 UNK         0.0000 
     84 H84        -3.0653   -2.5544   -1.2787 H         1 UNK         0.0000 
     85 H85        -2.0623    2.1035    0.9533 H         1 UNK         0.0000 
     86 H86        -2.9002   -1.8632    2.1203 H         1 UNK         0.0000 
     87 H87        -4.1319   -1.0444    1.2902 H         1 UNK         0.0000 
     88 H88        -4.3618   -3.1700   -0.2647 H         1 UNK         0.0000 
     89 H89        -5.0716   -2.9851    1.2710 H         1 UNK         0.0000 
     90 H90        -4.4517   -5.0336    1.5348 H         1 UNK         0.0000 
     91 H91        -3.1534   -4.2962    2.3670 H         1 UNK         0.0000 
     92 H92        -2.7471   -7.5320   -1.0349 H         1 UNK         0.0000 
     93 H93        -2.5032   -8.6655    0.2910 H         1 UNK         0.0000 
     94 H94        -4.0559   -7.8685    0.0786 H         1 UNK         0.0000 
@<TRIPOS>BOND
     1    1    4 nc   
     2    1    6 nc   
     3    1   37 nc   
     4    1   53 nc   
     5    1   35 nc   
     6    1   51 nc   
     7    2   57 1    
     8    2   56 1    
     9    2   55 1    
    10    2    3 1    
    11    3    4 2    
    12    3    5 am   BACKBONE|DICT|INTERRES
    13    5    7 1    
    14    5    6 1    
    15    7   59 1    
    16    7    8 1    
    17    7   58 1    
    18    8    9 1    
    19    8   61 1    
    20    8   60 1    
    21    9   63 1    
    22    9   10 1    
    23    9   62 1    
    24   10   11 1    
    25   10   12 1    
    26   10   46 1    
    27   12   13 2    
    28   12   14 am   BACKBONE|DICT|INTERRES
    29   14   15 1    
    30   14   64 1    
    31   15   16 1    
    32   15   17 1    
    33   15   18 1    
    34   17   65 1    
    35   17   66 1    
    36   17   67 1    
    37   18   19 2    
    38   18   20 am   BACKBONE|DICT|INTERRES
    39   20   68 1    
    40   20   21 1    
    41   21   22 1    
    42   21   69 1    
    43   21   70 1    
    44   22   23 2    
    45   22   24 am   BACKBONE|DICT|INTERRES
    46   24   25 1    
    47   24   71 1    
    48   25   26 1    
    49   25   72 1    
    50   25   73 1    
    51   26   28 am   BACKBONE|DICT|INTERRES
    52   26   27 2    
    53   28   74 1    
    54   28   29 1    
    55   29   39 1    
    56   29   31 1    
    57   29   30 1    
    58   31   75 1    
    59   31   32 1    
    60   31   76 1    
    61   32   77 1    
    62   32   33 1    
    63   32   78 1    
    64   33   34 1    
    65   33   79 1    
    66   33   80 1    
    67   34   36 am   BACKBONE|DICT|INTERRES
    68   34   35 1    
    69   36   37 2    
    70   36   38 1    
    71   38   82 1    
    72   38   81 1    
    73   38   83 1    
    74   39   41 am   BACKBONE|DICT|INTERRES
    75   39   40 2    
    76   41   42 1    
    77   41   84 1    
    78   42   43 1    
    79   42   44 1    
    80   42   47 1    
    81   44   46 am   BACKBONE|DICT|INTERRES
    82   44   45 2    
    83   46   85 1    
    84   47   86 1    
    85   47   48 1    
    86   47   87 1    
    87   48   49 1    
    88   48   89 1    
    89   48   88 1    
    90   49   90 1    
    91   49   50 1    
    92   49   91 1    
    93   50   52 am   BACKBONE|DICT|INTERRES
    94   50   51 1    
    95   52   53 2    
    96   52   54 1    
    97   54   93 1    
    98   54   94 1    
    99   54   92 1    
@<TRIPOS>SUBSTRUCTURE
     1 UNK         1 GROUP             0       ****    0 ROOT    
