@<TRIPOS>MOLECULE
106_c4
112   117    1
SMALL
USER_CHARGES


@<TRIPOS>ATOM
      1 Fe1         0.6498    2.1563   -2.1342 Fe        1 UNK         0.0000 
      2 O2         -0.0673   -6.1678   -5.3829 O.2       1 UNK         0.0000 
      3 C3          1.0968   -6.0660   -5.0074 C.2       1 UNK         0.0000 
      4 C4          1.8555   -7.2865   -4.4724 C.3       1 UNK         0.0000 
      5 C5          1.0217   -8.2554   -3.5797 C.3       1 UNK         0.0000 
      6 C6          1.3317   -8.2268   -2.0645 C.2       1 UNK         0.0000 
      7 O7          2.5012   -8.0541   -1.7147 O.2       1 UNK         0.0000 
      8 N8          0.3646   -8.5357   -1.1554 N.am      1 UNK         0.0000 
      9 O9         -0.9707   -8.6308   -1.6011 O.3       1 UNK         0.0000 
     10 C10         0.5942   -8.9860    0.2248 C.3       1 UNK         0.0000 
     11 C11        -0.2226   -8.2644    1.3176 C.3       1 UNK         0.0000 
     12 C12         0.2700   -6.8469    1.6684 C.3       1 UNK         0.0000 
     13 C13        -0.4529   -5.6999    0.9370 C.3       1 UNK         0.0000 
     14 C14         0.0851   -4.3348    1.4046 C.3       1 UNK         0.0000 
     15 N15        -0.8065   -3.2069    1.1314 N.am      1 UNK         0.0000 
     16 C16        -0.6387   -2.0048    1.7017 C.2       1 UNK         0.0000 
     17 O17         0.2835   -1.7672    2.4809 O.2       1 UNK         0.0000 
     18 C18        -1.6690   -0.9187    1.3797 C.3       1 UNK         0.0000 
     19 C19        -1.1461    0.5315    1.5732 C.3       1 UNK         0.0000 
     20 C20        -0.1858    0.9469    0.4472 C.2       1 UNK         0.0000 
     21 O21        -0.5954    0.8257   -0.7151 O.co2     1 UNK         0.0000 
     22 N22         1.0542    1.4822    0.6583 N.am      1 UNK         0.0000 
     23 O23         1.9251    1.7810   -0.3150 O.co2     1 UNK         0.0000 
     24 C24         1.5156    1.9600    1.9708 C.3       1 UNK         0.0000 
     25 C25         1.1937    3.4584    2.1554 C.3       1 UNK         0.0000 
     26 C26         1.8006    4.0579    3.4306 C.3       1 UNK         0.0000 
     27 C27         1.2737    5.4694    3.7630 C.3       1 UNK         0.0000 
     28 C28         1.7358    6.5981    2.8156 C.3       1 UNK         0.0000 
     29 N29         0.9395    6.7322    1.5887 N.am      1 UNK         0.0000 
     30 C30         1.4421    7.0026    0.3747 C.2       1 UNK         0.0000 
     31 O31         2.6464    7.0415    0.1462 O.2       1 UNK         0.0000 
     32 C32         0.4410    7.3442   -0.7375 C.3       1 UNK         0.0000 
     33 C33         0.6757    6.6242   -2.0869 C.3       1 UNK         0.0000 
     34 C34         0.2953    5.1351   -2.0380 C.2       1 UNK         0.0000 
     35 O35         1.1719    4.3210   -1.7309 O.co2     1 UNK         0.0000 
     36 N36        -0.9594    4.6826   -2.3372 N.am      1 UNK         0.0000 
     37 O37        -1.2945    3.3849   -2.3474 O.co2     1 UNK         0.0000 
     38 C38        -2.0909    5.5568   -2.7237 C.3       1 UNK         0.0000 
     39 C39        -2.5044    5.3977   -4.2048 C.3       1 UNK         0.0000 
     40 C40        -1.5036    6.0186   -5.2007 C.3       1 UNK         0.0000 
     41 C41        -1.6574    5.5130   -6.6560 C.3       1 UNK         0.0000 
     42 N42        -0.5601    4.6451   -7.0996 N.am      1 UNK         0.0000 
     43 C43        -0.3824    3.3728   -6.7222 C.2       1 UNK         0.0000 
     44 O44        -1.1598    2.7835   -5.9830 O.2       1 UNK         0.0000 
     45 C45         0.8663    2.6489   -7.2483 C.3       1 UNK         0.0000 
     46 C46         1.9944    2.3227   -6.2186 C.3       1 UNK         0.0000 
     47 C47         1.5758    1.9062   -4.7907 C.2       1 UNK         0.0000 
     48 O48         1.5386    2.7439   -3.8805 O.co2     1 UNK         0.0000 
     49 N49         1.2002    0.6443   -4.4705 N.am      1 UNK         0.0000 
     50 O50         0.8288    0.2942   -3.2392 O.co2     1 UNK         0.0000 
     51 C51         1.1964   -0.4910   -5.4081 C.3       1 UNK         0.0000 
     52 C52         2.2916   -1.5227   -5.0431 C.3       1 UNK         0.0000 
     53 C53         2.3853   -2.6819   -6.0446 C.3       1 UNK         0.0000 
     54 C54         1.2962   -3.7565   -5.8593 C.3       1 UNK         0.0000 
     55 N55         1.7900   -4.9266   -5.1321 N.am      1 UNK         0.0000 
     56 H56         2.7696   -6.9568   -3.9778 H         1 UNK         0.0000 
     57 H57         2.1697   -7.8290   -5.3649 H         1 UNK         0.0000 
     58 H58        -0.0442   -8.1259   -3.7625 H         1 UNK         0.0000 
     59 H59         1.2642   -9.2736   -3.8825 H         1 UNK         0.0000 
     60 H60        -1.1508   -9.5745   -1.6052 H         1 UNK         0.0000 
     61 H61         0.3826  -10.0550    0.2672 H         1 UNK         0.0000 
     62 H62         1.6535   -8.9021    0.4818 H         1 UNK         0.0000 
     63 H63        -0.1181   -8.8638    2.2241 H         1 UNK         0.0000 
     64 H64        -1.2903   -8.2737    1.0905 H         1 UNK         0.0000 
     65 H65         0.1239   -6.6979    2.7406 H         1 UNK         0.0000 
     66 H66         1.3488   -6.7767    1.5105 H         1 UNK         0.0000 
     67 H67        -1.5249   -5.7708    1.1300 H         1 UNK         0.0000 
     68 H68        -0.3236   -5.8006   -0.1425 H         1 UNK         0.0000 
     69 H69         1.0813   -4.1606    0.9893 H         1 UNK         0.0000 
     70 H70         0.2303   -4.3789    2.4885 H         1 UNK         0.0000 
     71 H71        -1.5585   -3.3454    0.4742 H         1 UNK         0.0000 
     72 H72        -2.4834   -1.0817    2.0798 H         1 UNK         0.0000 
     73 H73        -2.1271   -1.0443    0.4025 H         1 UNK         0.0000 
     74 H74        -0.8215    0.7044    2.5966 H         1 UNK         0.0000 
     75 H75        -1.9967    1.2064    1.4766 H         1 UNK         0.0000 
     76 H76         1.1409    1.3832    2.8160 H         1 UNK         0.0000 
     77 H77         2.5977    1.8109    2.0537 H         1 UNK         0.0000 
     78 H78         1.5591    4.0133    1.2924 H         1 UNK         0.0000 
     79 H79         0.1120    3.5839    2.1786 H         1 UNK         0.0000 
     80 H80         1.5825    3.3986    4.2724 H         1 UNK         0.0000 
     81 H81         2.8889    4.0809    3.3402 H         1 UNK         0.0000 
     82 H82         0.1847    5.4576    3.8374 H         1 UNK         0.0000 
     83 H83         1.6263    5.7162    4.7672 H         1 UNK         0.0000 
     84 H84         2.7974    6.4546    2.5915 H         1 UNK         0.0000 
     85 H85         1.6913    7.5498    3.3490 H         1 UNK         0.0000 
     86 H86        -0.0601    6.6697    1.6858 H         1 UNK         0.0000 
     87 H87        -0.5982    7.2872   -0.4229 H         1 UNK         0.0000 
     88 H88         0.6100    8.4051   -0.9143 H         1 UNK         0.0000 
     89 H89         1.7051    6.7577   -2.4270 H         1 UNK         0.0000 
     90 H90         0.1064    7.1167   -2.8741 H         1 UNK         0.0000 
     91 H91        -1.9303    6.6164   -2.5159 H         1 UNK         0.0000 
     92 H92        -2.9397    5.3071   -2.0850 H         1 UNK         0.0000 
     93 H93        -2.6546    4.3410   -4.4178 H         1 UNK         0.0000 
     94 H94        -3.4758    5.8692   -4.3523 H         1 UNK         0.0000 
     95 H95        -1.6193    7.1026   -5.1729 H         1 UNK         0.0000 
     96 H96        -0.4798    5.8336   -4.8686 H         1 UNK         0.0000 
     97 H97        -2.6317    5.0439   -6.8236 H         1 UNK         0.0000 
     98 H98        -1.6442    6.3798   -7.3214 H         1 UNK         0.0000 
     99 H99         0.1186    5.0509   -7.7204 H         1 UNK         0.0000 
    100 H100        0.5305    1.7164   -7.7018 H         1 UNK         0.0000 
    101 H101        1.3033    3.1916   -8.0888 H         1 UNK         0.0000 
    102 H102        2.6075    3.2192   -6.1176 H         1 UNK         0.0000 
    103 H103        2.7000    1.6016   -6.6326 H         1 UNK         0.0000 
    104 H104        1.3121   -0.1993   -6.4573 H         1 UNK         0.0000 
    105 H105        0.2077   -0.9634   -5.3765 H         1 UNK         0.0000 
    106 H106        3.2493   -1.0092   -4.9984 H         1 UNK         0.0000 
    107 H107        2.1209   -1.9209   -4.0427 H         1 UNK         0.0000 
    108 H108        3.3746   -3.1376   -5.9738 H         1 UNK         0.0000 
    109 H109        2.3329   -2.2741   -7.0542 H         1 UNK         0.0000 
    110 H110        0.9776   -4.0860   -6.8532 H         1 UNK         0.0000 
    111 H111        0.3911   -3.3531   -5.3949 H         1 UNK         0.0000 
    112 H112        2.6787   -4.8503   -4.6648 H         1 UNK         0.0000 
@<TRIPOS>BOND
     1    1   21 nc   
     2    1   23 nc   
     3    1   35 nc   
     4    1   37 nc   
     5    1   48 nc   
     6    1   50 nc   
     7    2    3 2    
     8    3    4 1    
     9    3   55 am   BACKBONE|DICT|INTERRES
    10    4   56 1    
    11    4    5 1    
    12    4   57 1    
    13    5    6 1    
    14    5   58 1    
    15    5   59 1    
    16    6    7 2    
    17    6    8 am   BACKBONE|DICT|INTERRES
    18    8   10 1    
    19    8    9 1    
    20    9   60 1    
    21   10   61 1    
    22   10   62 1    
    23   10   11 1    
    24   11   12 1    
    25   11   63 1    
    26   11   64 1    
    27   12   65 1    
    28   12   13 1    
    29   12   66 1    
    30   13   67 1    
    31   13   14 1    
    32   13   68 1    
    33   14   70 1    
    34   14   15 1    
    35   14   69 1    
    36   15   16 am   BACKBONE|DICT|INTERRES
    37   15   71 1    
    38   16   17 2    
    39   16   18 1    
    40   18   19 1    
    41   18   72 1    
    42   18   73 1    
    43   19   74 1    
    44   19   20 1    
    45   19   75 1    
    46   20   21 2    
    47   20   22 am   BACKBONE|DICT|INTERRES
    48   22   24 1    
    49   22   23 1    
    50   24   25 1    
    51   24   76 1    
    52   24   77 1    
    53   25   79 1    
    54   25   26 1    
    55   25   78 1    
    56   26   27 1    
    57   26   80 1    
    58   26   81 1    
    59   27   82 1    
    60   27   83 1    
    61   27   28 1    
    62   28   85 1    
    63   28   29 1    
    64   28   84 1    
    65   29   86 1    
    66   29   30 am   BACKBONE|DICT|INTERRES
    67   30   31 2    
    68   30   32 1    
    69   32   87 1    
    70   32   33 1    
    71   32   88 1    
    72   33   34 1    
    73   33   89 1    
    74   33   90 1    
    75   34   35 2    
    76   34   36 am   BACKBONE|DICT|INTERRES
    77   36   37 1    
    78   36   38 1    
    79   38   91 1    
    80   38   92 1    
    81   38   39 1    
    82   39   40 1    
    83   39   93 1    
    84   39   94 1    
    85   40   95 1    
    86   40   96 1    
    87   40   41 1    
    88   41   42 1    
    89   41   97 1    
    90   41   98 1    
    91   42   43 am   BACKBONE|DICT|INTERRES
    92   42   99 1    
    93   43   44 2    
    94   43   45 1    
    95   45   46 1    
    96   45  100 1    
    97   45  101 1    
    98   46  102 1    
    99   46   47 1    
   100   46  103 1    
   101   47   49 am   BACKBONE|DICT|INTERRES
   102   47   48 2    
   103   49   51 1    
   104   49   50 1    
   105   51  105 1    
   106   51   52 1    
   107   51  104 1    
   108   52  107 1    
   109   52   53 1    
   110   52  106 1    
   111   53  108 1    
   112   53   54 1    
   113   53  109 1    
   114   54  111 1    
   115   54   55 1    
   116   54  110 1    
   117   55  112 1    
@<TRIPOS>SUBSTRUCTURE
     1 UNK         1 GROUP             0       ****    0 ROOT    
