@<TRIPOS>MOLECULE
177_c1
139   146    1
SMALL
USER_CHARGES


@<TRIPOS>ATOM
      1 Fe1         3.7376   -0.9294   -2.2918 Fe        1 UNK         0.0000 
      2 O2          2.0138    0.6073   -3.2739 O.co2     1 UNK         0.0000 
      3 C3          2.5722    1.7464   -3.4545 C.ar      1 UNK         0.0000 
      4 C4          3.9653    1.6683   -3.4984 C.ar      1 UNK         0.0000 
      5 O5          4.4656    0.5282   -3.3080 O.co2     1 UNK         0.0000 
      6 C6          4.7628    2.8115   -3.5191 C.ar      1 UNK         0.0000 
      7 C7          4.1443    4.0529   -3.4745 C.ar      1 UNK         0.0000 
      8 C8          2.7559    4.1441   -3.4699 C.ar      1 UNK         0.0000 
      9 C9          1.9177    3.0031   -3.4604 C.ar      1 UNK         0.0000 
     10 C10         0.3988    3.1722   -3.3599 C.2       1 UNK         0.0000 
     11 O11        -0.4522    2.3238   -3.6237 O.2       1 UNK         0.0000 
     12 N12        -0.0134    4.3959   -2.9470 N.am      1 UNK         0.0000 
     13 C13        -1.4139    4.7291   -2.6361 C.3       1 UNK         0.0000 
     14 H14        -2.0828    4.0810   -3.2008 H         1 UNK         0.0000 
     15 C15        -1.7538    6.2007   -3.0036 C.3       1 UNK         0.0000 
     16 C16        -1.7323    6.5927   -4.4906 C.3       1 UNK         0.0000 
     17 C17        -2.0857    8.0888   -4.5919 C.3       1 UNK         0.0000 
     18 C18        -2.0091    8.6419   -6.0158 C.3       1 UNK         0.0000 
     19 N19        -2.3157   10.0868   -6.0266 N.4       1 UNK         0.0000 
     20 H20        -1.6552   10.5802   -5.4477 H         1 UNK         0.0000 
     21 H21        -2.2599   10.4409   -6.9683 H         1 UNK         0.0000 
     22 H22        -3.2446   10.2417   -5.6690 H         1 UNK         0.0000 
     23 C23        -1.6916    4.4844   -1.1347 C.2       1 UNK         0.0000 
     24 O24        -1.4464    5.3848   -0.3183 O.2       1 UNK         0.0000 
     25 N25        -2.2745    3.3282   -0.8024 N.am      1 UNK         0.0000 
     26 C26        -2.7446    3.0394    0.5648 C.3       1 UNK         0.0000 
     27 H27        -2.0256    3.4757    1.2543 H         1 UNK         0.0000 
     28 C28        -4.1168    3.6969    0.8713 C.2       1 UNK         0.0000 
     29 O29        -5.1650    3.3828    0.3528 O.2       1 UNK         0.0000 
     30 O30        -4.0410    4.6535    1.8332 O.3       1 UNK         0.0000 
     31 C31        -2.7558    1.5396    0.9109 C.3       1 UNK         0.0000 
     32 O32        -1.4293    1.0453    0.7738 O.3       1 UNK         0.0000 
     33 C33        -1.1008   -0.2647    0.9207 C.2       1 UNK         0.0000 
     34 O34        -0.1969   -0.7605    0.2800 O.2       1 UNK         0.0000 
     35 C35        -1.9011   -1.0815    1.9456 C.3       1 UNK         0.0000 
     36 H36        -2.9069   -1.1971    1.5509 H         1 UNK         0.0000 
     37 N37        -2.0537   -0.3606    3.2480 N.am      1 UNK         0.0000 
     38 C38        -1.1804   -0.0594    4.2311 C.2       1 UNK         0.0000 
     39 O39        -1.5641    0.6606    5.1537 O.2       1 UNK         0.0000 
     40 C40         0.2632   -0.6445    4.2854 C.3       1 UNK         0.0000 
     41 H41         0.1457   -1.7202    4.2017 H         1 UNK         0.0000 
     42 C42         1.0287   -0.4099    5.6331 C.3       1 UNK         0.0000 
     43 C43         0.4975   -1.1789    6.8668 C.3       1 UNK         0.0000 
     44 C44         1.2707   -0.8037    8.1479 C.3       1 UNK         0.0000 
     45 C45         0.7056   -1.4855    9.4049 C.3       1 UNK         0.0000 
     46 N46         1.4298   -1.0636   10.6217 N.4       1 UNK         0.0000 
     47 H47         1.0321   -1.5166   11.4299 H         1 UNK         0.0000 
     48 H48         2.4019   -1.3157   10.5508 H         1 UNK         0.0000 
     49 H49         1.3536   -0.0662   10.7371 H         1 UNK         0.0000 
     50 N50         1.1093   -0.1923    3.1735 N.am      1 UNK         0.0000 
     51 C51         2.1689   -0.8760    2.6955 C.2       1 UNK         0.0000 
     52 O52         2.4630   -1.9787    3.1813 O.2       1 UNK         0.0000 
     53 C53         3.0372   -0.0800    1.7454 C.ar      1 UNK         0.0000 
     54 C54         3.6706   -0.6250    0.6064 C.ar      1 UNK         0.0000 
     55 O55         3.3612   -1.7016    0.0026 O.co2     1 UNK         0.0000 
     56 C56         4.6321    0.1133   -0.0611 C.ar      1 UNK         0.0000 
     57 O57         5.1428   -0.4176   -1.0773 O.co2     1 UNK         0.0000 
     58 C58         4.8750    1.4502    0.2429 C.ar      1 UNK         0.0000 
     59 C59         4.1603    2.0500    1.2778 C.ar      1 UNK         0.0000 
     60 C60         3.2769    1.2858    2.0420 C.ar      1 UNK         0.0000 
     61 C61        -1.3485   -2.5222    2.1019 C.3       1 UNK         0.0000 
     62 O62        -1.4386   -3.3845    0.9758 O.3       1 UNK         0.0000 
     63 C63        -2.5032   -4.1823    0.8653 C.2       1 UNK         0.0000 
     64 O64        -3.6636   -3.8407    1.1301 O.2       1 UNK         0.0000 
     65 C65        -2.0703   -5.6201    0.6185 C.3       1 UNK         0.0000 
     66 H66        -1.1714   -5.7507    1.2195 H         1 UNK         0.0000 
     67 C67        -3.0673   -6.6946    1.1504 C.3       1 UNK         0.0000 
     68 O68        -4.2669   -6.9074    0.4198 O.3       1 UNK         0.0000 
     69 N69        -1.6927   -5.7784   -0.7958 N.am      1 UNK         0.0000 
     70 C70        -0.6980   -6.5658   -1.2398 C.2       1 UNK         0.0000 
     71 O71        -0.1417   -7.4103   -0.5205 O.2       1 UNK         0.0000 
     72 C72        -0.3545   -6.4893   -2.7555 C.3       1 UNK         0.0000 
     73 H73         0.7083   -6.7023   -2.8608 H         1 UNK         0.0000 
     74 C74        -1.1893   -7.5570   -3.5372 C.3       1 UNK         0.0000 
     75 C75        -1.0158   -9.0313   -3.0997 C.3       1 UNK         0.0000 
     76 C76        -1.9425   -9.9759   -3.8790 C.3       1 UNK         0.0000 
     77 C77        -1.7830  -11.4289   -3.4136 C.3       1 UNK         0.0000 
     78 N78        -2.6670  -12.3373   -4.1720 N.4       1 UNK         0.0000 
     79 H79        -2.4441  -12.2953   -5.1536 H         1 UNK         0.0000 
     80 H80        -3.6291  -12.0689   -4.0384 H         1 UNK         0.0000 
     81 H81        -2.5438  -13.2845   -3.8472 H         1 UNK         0.0000 
     82 N82        -0.6867   -5.1847   -3.3546 N.am      1 UNK         0.0000 
     83 C83         0.0544   -4.1332   -3.7454 C.2       1 UNK         0.0000 
     84 O84        -0.6040   -3.1771   -4.1522 O.2       1 UNK         0.0000 
     85 C85         1.5633   -4.2333   -3.8696 C.ar      1 UNK         0.0000 
     86 C86         2.4358   -3.2548   -3.3544 C.ar      1 UNK         0.0000 
     87 O87         2.1326   -2.2914   -2.5751 O.co2     1 UNK         0.0000 
     88 C88         3.7903   -3.2529   -3.7081 C.ar      1 UNK         0.0000 
     89 O89         4.4611   -2.2663   -3.2782 O.co2     1 UNK         0.0000 
     90 C90         4.3331   -4.2685   -4.4729 C.ar      1 UNK         0.0000 
     91 C91         3.5064   -5.2873   -4.9343 C.ar      1 UNK         0.0000 
     92 C92         2.1328   -5.2658   -4.6459 C.ar      1 UNK         0.0000 
     93 H93         5.8401    2.6987   -3.4912 H         1 UNK         0.0000 
     94 H94         4.7453    4.9408   -3.4156 H         1 UNK         0.0000 
     95 H95         2.3307    5.1287   -3.4541 H         1 UNK         0.0000 
     96 H96         0.7036    5.0005   -2.5812 H         1 UNK         0.0000 
     97 H97        -2.7591    6.4149   -2.6187 H         1 UNK         0.0000 
     98 H98        -1.0863    6.8649   -2.4518 H         1 UNK         0.0000 
     99 H99        -0.7431    6.3955   -4.9079 H         1 UNK         0.0000 
    100 H100       -2.4484    5.9841   -5.0530 H         1 UNK         0.0000 
    101 H101       -3.0919    8.2397   -4.1903 H         1 UNK         0.0000 
    102 H102       -1.4053    8.6477   -3.9438 H         1 UNK         0.0000 
    103 H103       -2.7121    8.1143   -6.6628 H         1 UNK         0.0000 
    104 H104       -1.0090    8.4813   -6.4247 H         1 UNK         0.0000 
    105 H105       -2.2947    2.5779   -1.4881 H         1 UNK         0.0000 
    106 H106       -3.4232    0.9736    0.2545 H         1 UNK         0.0000 
    107 H107       -3.1006    1.4201    1.9389 H         1 UNK         0.0000 
    108 H108       -2.9641    0.0492    3.3862 H         1 UNK         0.0000 
    109 H109        1.0573    0.6572    5.8559 H         1 UNK         0.0000 
    110 H110        2.0735   -0.6990    5.5018 H         1 UNK         0.0000 
    111 H111        0.5798   -2.2532    6.6808 H         1 UNK         0.0000 
    112 H112       -0.5642   -0.9604    6.9963 H         1 UNK         0.0000 
    113 H113        2.3234   -1.0746    8.0140 H         1 UNK         0.0000 
    114 H114        1.2398    0.2829    8.2685 H         1 UNK         0.0000 
    115 H115        0.7683   -2.5715    9.3028 H         1 UNK         0.0000 
    116 H116       -0.3522   -1.2340    9.5169 H         1 UNK         0.0000 
    117 H117        0.8597    0.6439    2.6663 H         1 UNK         0.0000 
    118 H118        5.5625    2.0149   -0.3720 H         1 UNK         0.0000 
    119 H119        4.3026    3.0892    1.4957 H         1 UNK         0.0000 
    120 H120        2.8058    1.7566    2.8813 H         1 UNK         0.0000 
    121 H121       -0.3026   -2.5134    2.3862 H         1 UNK         0.0000 
    122 H122       -1.8647   -2.9928    2.9419 H         1 UNK         0.0000 
    123 H123       -2.5294   -7.6372    1.2456 H         1 UNK         0.0000 
    124 H124       -3.4007   -6.4283    2.1537 H         1 UNK         0.0000 
    125 H125       -4.9755   -6.5244    0.9427 H         1 UNK         0.0000 
    126 H126       -2.1750   -5.1959   -1.4629 H         1 UNK         0.0000 
    127 H127       -2.2508   -7.2893   -3.4589 H         1 UNK         0.0000 
    128 H128       -0.9278   -7.4809   -4.5945 H         1 UNK         0.0000 
    129 H129        0.0308   -9.3191   -3.2340 H         1 UNK         0.0000 
    130 H130       -1.2271   -9.1373   -2.0317 H         1 UNK         0.0000 
    131 H131       -2.9759   -9.6494   -3.7412 H         1 UNK         0.0000 
    132 H132       -1.7201   -9.8840   -4.9435 H         1 UNK         0.0000 
    133 H133       -0.7460  -11.7469   -3.5345 H         1 UNK         0.0000 
    134 H134       -2.0210  -11.5067   -2.3507 H         1 UNK         0.0000 
    135 H135       -1.6495   -4.9259   -3.4009 H         1 UNK         0.0000 
    136 H136        5.3922   -4.2547   -4.6557 H         1 UNK         0.0000 
    137 H137        3.9200   -6.0810   -5.5213 H         1 UNK         0.0000 
    138 H138        1.4931   -6.0229   -5.0526 H         1 UNK         0.0000 
    139 H139       -4.9418    4.9740    1.9108 H         1 UNK         0.0000 
@<TRIPOS>BOND
     1    1    2 nc   
     2    1    5 nc   
     3    1   55 nc   
     4    1   57 nc   
     5    1   87 nc   
     6    1   89 nc   
     7    2    3 1    
     8    3    9 ar   
     9    3    4 ar   
    10    4    6 ar   
    11    4    5 1    
    12    6   93 1    
    13    6    7 ar   
    14    7   94 1    
    15    7    8 ar   
    16    8   95 1    
    17    8    9 ar   
    18    9   10 1    
    19   10   12 am   BACKBONE|DICT|INTERRES
    20   10   11 2    
    21   12   13 1    
    22   12   96 1    
    23   13   14 1    
    24   13   23 1    
    25   13   15 1    
    26   15   97 1    
    27   15   98 1    
    28   15   16 1    
    29   16   17 1    
    30   16   99 1    
    31   16  100 1    
    32   17  101 1    
    33   17  102 1    
    34   17   18 1    
    35   18   19 1    
    36   18  103 1    
    37   18  104 1    
    38   19   22 1    
    39   19   20 1    
    40   19   21 1    
    41   23   25 am   BACKBONE|DICT|INTERRES
    42   23   24 2    
    43   25   26 1    
    44   25  105 1    
    45   26   31 1    
    46   26   28 1    
    47   26   27 1    
    48   28   30 1    
    49   28   29 2    
    50   30  139 1    
    51   31  107 1    
    52   31   32 1    
    53   31  106 1    
    54   32   33 1    
    55   33   35 1    
    56   33   34 2    
    57   35   36 1    
    58   35   61 1    
    59   35   37 1    
    60   37  108 1    
    61   37   38 am   BACKBONE|DICT|INTERRES
    62   38   40 1    
    63   38   39 2    
    64   40   41 1    
    65   40   42 1    
    66   40   50 1    
    67   42  109 1    
    68   42   43 1    
    69   42  110 1    
    70   43  112 1    
    71   43   44 1    
    72   43  111 1    
    73   44  114 1    
    74   44   45 1    
    75   44  113 1    
    76   45  116 1    
    77   45   46 1    
    78   45  115 1    
    79   46   49 1    
    80   46   47 1    
    81   46   48 1    
    82   50  117 1    
    83   50   51 am   BACKBONE|DICT|INTERRES
    84   51   52 2    
    85   51   53 1    
    86   53   60 ar   
    87   53   54 ar   
    88   54   55 1    
    89   54   56 ar   
    90   56   58 ar   
    91   56   57 1    
    92   58   59 ar   
    93   58  118 1    
    94   59  119 1    
    95   59   60 ar   
    96   60  120 1    
    97   61  121 1    
    98   61  122 1    
    99   61   62 1    
   100   62   63 1    
   101   63   65 1    
   102   63   64 2    
   103   65   66 1    
   104   65   67 1    
   105   65   69 1    
   106   67  123 1    
   107   67  124 1    
   108   67   68 1    
   109   68  125 1    
   110   69   70 am   BACKBONE|DICT|INTERRES
   111   69  126 1    
   112   70   71 2    
   113   70   72 1    
   114   72   73 1    
   115   72   74 1    
   116   72   82 1    
   117   74  127 1    
   118   74   75 1    
   119   74  128 1    
   120   75  130 1    
   121   75   76 1    
   122   75  129 1    
   123   76  131 1    
   124   76   77 1    
   125   76  132 1    
   126   77  134 1    
   127   77   78 1    
   128   77  133 1    
   129   78   80 1    
   130   78   81 1    
   131   78   79 1    
   132   82  135 1    
   133   82   83 am   BACKBONE|DICT|INTERRES
   134   83   84 2    
   135   83   85 1    
   136   85   86 ar   
   137   85   92 ar   
   138   86   87 1    
   139   86   88 ar   
   140   88   89 1    
   141   88   90 ar   
   142   90   91 ar   
   143   90  136 1    
   144   91   92 ar   
   145   91  137 1    
   146   92  138 1    
@<TRIPOS>SUBSTRUCTURE
     1 UNK         1 GROUP             0       ****    0 ROOT    
