@<TRIPOS>MOLECULE
173_c1
97   102    1
SMALL
USER_CHARGES


@<TRIPOS>ATOM
      1 C1         -4.1880    3.2330   -4.8634 C.3       1 UNK         0.0000 
      2 C2         -3.4141    1.9287   -5.0300 C.2       1 UNK         0.0000 
      3 O3         -2.3975    1.8985   -5.7422 O.co2     1 UNK         0.0000 
      4 N4         -3.7885    0.7756   -4.3965 N.am      1 UNK         0.0000 
      5 O5         -3.0768   -0.3542   -4.4620 O.co2     1 UNK         0.0000 
      6 C6         -5.1191    0.5822   -3.7796 C.3       1 UNK         0.0000 
      7 C7         -6.2558    0.5222   -4.8260 C.3       1 UNK         0.0000 
      8 C8         -7.5377   -0.2260   -4.3777 C.3       1 UNK         0.0000 
      9 C9         -8.6076   -0.4114   -5.5249 C.3       1 UNK         0.0000 
     10 H10        -9.4354    0.2883   -5.3816 H         1 UNK         0.0000 
     11 C11        -9.2448   -1.8456   -5.4285 C.2       1 UNK         0.0000 
     12 O12       -10.3398   -2.1177   -4.9654 O.2       1 UNK         0.0000 
     13 N13        -8.4747   -2.7874   -6.0219 N.am      1 UNK         0.0000 
     14 C14        -7.2066   -2.3988   -6.6978 C.3       1 UNK         0.0000 
     15 H15        -6.5544   -2.0872   -5.8853 H         1 UNK         0.0000 
     16 C16        -7.4366   -1.1195   -7.5874 C.2       1 UNK         0.0000 
     17 O17        -7.1473   -0.9516   -8.7639 O.2       1 UNK         0.0000 
     18 N18        -8.1300   -0.1757   -6.9181 N.am      1 UNK         0.0000 
     19 C19        -6.4386   -3.5431   -7.4047 C.3       1 UNK         0.0000 
     20 C20        -4.8996   -3.4911   -7.2678 C.3       1 UNK         0.0000 
     21 C21        -4.1312   -2.4184   -8.0931 C.3       1 UNK         0.0000 
     22 N22        -2.9854   -1.8014   -7.3741 N.am      1 UNK         0.0000 
     23 O23        -3.0196   -0.4583   -7.3857 O.co2     1 UNK         0.0000 
     24 C24        -2.0018   -2.5019   -6.7447 C.2       1 UNK         0.0000 
     25 O25        -1.2113   -1.8933   -6.0084 O.co2     1 UNK         0.0000 
     26 C26        -1.8045   -3.9047   -7.0146 C.2       1 UNK         0.0000 
     27 C27        -0.6821   -4.4124   -7.5792 C.2       1 UNK         0.0000 
     28 C28        -0.5272   -5.9041   -7.7990 C.3       1 UNK         0.0000 
     29 C29         0.5223   -3.5809   -8.0126 C.3       1 UNK         0.0000 
     30 C30         0.7804   -3.5090   -9.5345 C.3       1 UNK         0.0000 
     31 O31         1.7114   -2.4573   -9.7897 O.3       1 UNK         0.0000 
     32 C32         3.0213   -2.6310   -9.4609 C.2       1 UNK         0.0000 
     33 O33         3.5958   -3.7251   -9.4658 O.2       1 UNK         0.0000 
     34 C34         3.6226   -1.3689   -8.8439 C.3       1 UNK         0.0000 
     35 H35         4.6483   -1.6172   -8.5491 H         1 UNK         0.0000 
     36 N36         3.6023   -0.2687   -9.8432 N.am      1 UNK         0.0000 
     37 C37         4.7212    0.3062  -10.3038 C.2       1 UNK         0.0000 
     38 O38         5.8373   -0.0477   -9.9546 O.2       1 UNK         0.0000 
     39 C39         4.5903    1.4573  -11.2996 C.3       1 UNK         0.0000 
     40 C40         2.8739   -1.0358   -7.5204 C.3       1 UNK         0.0000 
     41 C41         3.1035    0.3444   -6.8910 C.3       1 UNK         0.0000 
     42 C42         1.9750    1.3833   -7.1261 C.3       1 UNK         0.0000 
     43 N43         0.7588    1.0652   -6.3749 N.am      1 UNK         0.0000 
     44 O44        -0.1914    0.5430   -7.1757 O.co2     1 UNK         0.0000 
     45 C45         0.6414    1.0551   -5.0062 C.2       1 UNK         0.0000 
     46 O46        -0.3413    0.4371   -4.5744 O.co2     1 UNK         0.0000 
     47 C47         1.4161    1.8027   -4.0098 C.2       1 UNK         0.0000 
     48 C48         2.6506    2.3604   -3.8446 C.2       1 UNK         0.0000 
     49 C49         3.8679    2.4224   -4.7761 C.3       1 UNK         0.0000 
     50 C50         2.9701    3.0883   -2.5250 C.3       1 UNK         0.0000 
     51 C51         1.8160    3.4187   -1.5480 C.3       1 UNK         0.0000 
     52 O52         0.8497    4.2310   -2.2058 O.3       1 UNK         0.0000 
     53 H53        -5.1706    3.1974   -5.3265 H         1 UNK         0.0000 
     54 H54        -3.6295    4.0254   -5.3548 H         1 UNK         0.0000 
     55 H55        -4.2855    3.4900   -3.8103 H         1 UNK         0.0000 
     56 H56        -5.3283    1.3069   -2.9853 H         1 UNK         0.0000 
     57 H57        -5.1260   -0.3876   -3.2637 H         1 UNK         0.0000 
     58 H58        -5.8349    0.0575   -5.7206 H         1 UNK         0.0000 
     59 H59        -6.5412    1.5273   -5.1257 H         1 UNK         0.0000 
     60 H60        -7.9966    0.2814   -3.5294 H         1 UNK         0.0000 
     61 H61        -7.2256   -1.1905   -3.9582 H         1 UNK         0.0000 
     62 H62        -8.8603   -3.7172   -6.0581 H         1 UNK         0.0000 
     63 H63        -8.3223    0.6678   -7.4329 H         1 UNK         0.0000 
     64 H64        -6.7441   -4.4666   -6.9091 H         1 UNK         0.0000 
     65 H65        -6.7566   -3.6430   -8.4437 H         1 UNK         0.0000 
     66 H66        -4.5294   -4.4679   -7.5724 H         1 UNK         0.0000 
     67 H67        -4.6471   -3.3995   -6.2022 H         1 UNK         0.0000 
     68 H68        -4.8398   -1.6443   -8.3827 H         1 UNK         0.0000 
     69 H69        -3.7702   -2.8133   -9.0476 H         1 UNK         0.0000 
     70 H70        -2.6143   -4.5397   -6.7047 H         1 UNK         0.0000 
     71 H71        -1.4046   -6.4394   -7.4357 H         1 UNK         0.0000 
     72 H72         0.3436   -6.2705   -7.2512 H         1 UNK         0.0000 
     73 H73        -0.4056   -6.1133   -8.8611 H         1 UNK         0.0000 
     74 H74         1.4110   -3.9266   -7.4790 H         1 UNK         0.0000 
     75 H75         0.3837   -2.5530   -7.6950 H         1 UNK         0.0000 
     76 H76        -0.1469   -3.2426  -10.0406 H         1 UNK         0.0000 
     77 H77         1.1522   -4.4561   -9.9371 H         1 UNK         0.0000 
     78 H78         2.6983    0.1083  -10.0814 H         1 UNK         0.0000 
     79 H79         5.1222    2.3263  -10.9128 H         1 UNK         0.0000 
     80 H80         5.0647    1.1680  -12.2372 H         1 UNK         0.0000 
     81 H81         3.5579    1.7349  -11.4969 H         1 UNK         0.0000 
     82 H82         3.1277   -1.8047   -6.7838 H         1 UNK         0.0000 
     83 H83         1.8004   -1.1152   -7.6603 H         1 UNK         0.0000 
     84 H84         4.0567    0.7617   -7.2014 H         1 UNK         0.0000 
     85 H85         3.1579    0.1284   -5.8272 H         1 UNK         0.0000 
     86 H86         1.7682    1.3781   -8.1989 H         1 UNK         0.0000 
     87 H87         2.2448    2.4244   -6.9763 H         1 UNK         0.0000 
     88 H88         0.7608    1.8880   -3.1534 H         1 UNK         0.0000 
     89 H89         3.6855    2.9093   -5.7230 H         1 UNK         0.0000 
     90 H90         4.3668    1.4685   -4.9004 H         1 UNK         0.0000 
     91 H91         4.6501    3.0330   -4.3400 H         1 UNK         0.0000 
     92 H92         3.4337    4.0344   -2.7920 H         1 UNK         0.0000 
     93 H93         3.7264    2.5007   -2.0081 H         1 UNK         0.0000 
     94 H94         2.2075    3.9615   -0.6888 H         1 UNK         0.0000 
     95 H95         1.3512    2.5127   -1.1401 H         1 UNK         0.0000 
     96 H96         0.4026    4.7937   -1.5675 H         1 UNK         0.0000 
     97 Fe97       -1.7169    0.0358   -5.9202 Fe        1 UNK         0.0000 
@<TRIPOS>BOND
     1    1    2 1    
     2    1   53 1    
     3    1   54 1    
     4    1   55 1    
     5    2    3 2    
     6    2    4 am   BACKBONE|DICT|INTERRES
     7    3   97 nc   
     8    4    5 1    
     9    4    6 1    
    10    5   97 nc   
    11    6    7 1    
    12    6   56 1    
    13    6   57 1    
    14    7    8 1    
    15    7   58 1    
    16    7   59 1    
    17    8   60 1    
    18    8   61 1    
    19    8    9 1    
    20    9   11 1    
    21    9   18 1    
    22    9   10 1    
    23   11   12 2    
    24   11   13 am   BACKBONE|DICT|INTERRES
    25   13   14 1    
    26   13   62 1    
    27   14   16 1    
    28   14   19 1    
    29   14   15 1    
    30   16   17 2    
    31   16   18 am   BACKBONE|DICT|INTERRES
    32   18   63 1    
    33   19   20 1    
    34   19   64 1    
    35   19   65 1    
    36   20   21 1    
    37   20   66 1    
    38   20   67 1    
    39   21   22 1    
    40   21   68 1    
    41   21   69 1    
    42   22   23 1    
    43   22   24 am   BACKBONE|DICT|INTERRES
    44   23   97 nc   
    45   24   25 2    
    46   24   26 1    
    47   25   97 nc   
    48   26   27 2    
    49   26   70 1    
    50   27   28 1    
    51   27   29 1    
    52   28   71 1    
    53   28   72 1    
    54   28   73 1    
    55   29   30 1    
    56   29   74 1    
    57   29   75 1    
    58   30   31 1    
    59   30   76 1    
    60   30   77 1    
    61   31   32 1    
    62   32   33 2    
    63   32   34 1    
    64   34   35 1    
    65   34   36 1    
    66   34   40 1    
    67   36   37 am   BACKBONE|DICT|INTERRES
    68   36   78 1    
    69   37   38 2    
    70   37   39 1    
    71   39   79 1    
    72   39   80 1    
    73   39   81 1    
    74   40   41 1    
    75   40   82 1    
    76   40   83 1    
    77   41   42 1    
    78   41   84 1    
    79   41   85 1    
    80   42   43 1    
    81   42   86 1    
    82   42   87 1    
    83   43   44 1    
    84   43   45 am   BACKBONE|DICT|INTERRES
    85   44   97 nc   
    86   45   46 2    
    87   45   47 1    
    88   46   97 nc   
    89   47   48 2    
    90   47   88 1    
    91   48   49 1    
    92   48   50 1    
    93   49   89 1    
    94   49   90 1    
    95   49   91 1    
    96   50   51 1    
    97   50   92 1    
    98   50   93 1    
    99   51   52 1    
   100   51   94 1    
   101   51   95 1    
   102   52   96 1    
@<TRIPOS>SUBSTRUCTURE
     1 UNK         1 GROUP             0       ****    0 ROOT    
