@<TRIPOS>MOLECULE
107_c4
100   105    1
SMALL
USER_CHARGES


@<TRIPOS>ATOM
      1 Fe1         0.3247    2.7437    1.0842 Fe        1 UNK         0.0000 
      2 O2         -0.7004   -4.4225    5.0106 O.2       1 UNK         0.0000 
      3 C3          0.4446   -4.2584    4.5993 C.2       1 UNK         0.0000 
      4 C4          1.2221   -5.3837    3.9048 C.3       1 UNK         0.0000 
      5 C5          0.4204   -6.6308    3.4469 C.3       1 UNK         0.0000 
      6 C6         -0.4042   -6.4678    2.1459 C.2       1 UNK         0.0000 
      7 O7         -1.0619   -5.4385    1.9972 O.2       1 UNK         0.0000 
      8 N8         -0.4355   -7.4551    1.2053 N.am      1 UNK         0.0000 
      9 O9          0.4345   -8.5600    1.3515 O.3       1 UNK         0.0000 
     10 C10        -1.2074   -7.4325   -0.0475 C.3       1 UNK         0.0000 
     11 C11        -0.3489   -7.4148   -1.3307 C.3       1 UNK         0.0000 
     12 C12         0.5447   -6.1745   -1.5299 C.3       1 UNK         0.0000 
     13 C13        -0.2194   -4.8826   -1.8916 C.3       1 UNK         0.0000 
     14 C14         0.7328   -3.7645   -2.3504 C.3       1 UNK         0.0000 
     15 N15         0.0415   -2.6053   -2.9216 N.am      1 UNK         0.0000 
     16 C16         0.3757   -1.3302   -2.6892 C.2       1 UNK         0.0000 
     17 O17         1.2702   -1.0246   -1.9091 O.2       1 UNK         0.0000 
     18 C18        -0.3517   -0.2534   -3.5179 C.3       1 UNK         0.0000 
     19 C19        -1.0010    0.9597   -2.7795 C.3       1 UNK         0.0000 
     20 C20        -0.2475    1.5606   -1.5731 C.2       1 UNK         0.0000 
     21 O21        -0.7577    1.4505   -0.4512 O.co2     1 UNK         0.0000 
     22 N22         0.9660    2.1761   -1.6919 N.am      1 UNK         0.0000 
     23 O23         1.7504    2.4961   -0.6528 O.co2     1 UNK         0.0000 
     24 C24         1.5813    2.5441   -2.9771 C.3       1 UNK         0.0000 
     25 C25         2.0106    4.0352   -3.1035 C.3       1 UNK         0.0000 
     26 C26         0.8986    5.0404   -3.4851 C.3       1 UNK         0.0000 
     27 N27         0.2302    5.7534   -2.3833 N.am      1 UNK         0.0000 
     28 C28         0.7485    6.7938   -1.7054 C.2       1 UNK         0.0000 
     29 O29         1.8922    7.1994   -1.8792 O.2       1 UNK         0.0000 
     30 C30        -0.1781    7.5153   -0.7062 C.3       1 UNK         0.0000 
     31 C31         0.0358    7.1668    0.7905 C.3       1 UNK         0.0000 
     32 C32        -0.2492    5.6845    1.0670 C.2       1 UNK         0.0000 
     33 O33         0.6714    4.8936    0.8677 O.co2     1 UNK         0.0000 
     34 N34        -1.4815    5.1956    1.4027 N.am      1 UNK         0.0000 
     35 O35        -1.7513    3.8893    1.4742 O.co2     1 UNK         0.0000 
     36 C36        -2.6528    6.0195    1.7675 C.3       1 UNK         0.0000 
     37 C37        -3.2036    5.7406    3.1885 C.3       1 UNK         0.0000 
     38 C38        -2.2566    6.1129    4.3478 C.3       1 UNK         0.0000 
     39 N39        -1.3441    5.0428    4.7812 N.am      1 UNK         0.0000 
     40 C40        -0.0127    5.1450    4.9059 C.2       1 UNK         0.0000 
     41 O41         0.6187    6.1095    4.4871 O.2       1 UNK         0.0000 
     42 C42         0.7178    4.0097    5.6497 C.3       1 UNK         0.0000 
     43 C43         1.8834    3.3103    4.8899 C.3       1 UNK         0.0000 
     44 C44         1.4422    2.6123    3.5974 C.2       1 UNK         0.0000 
     45 O45         1.7655    3.0905    2.5058 O.co2     1 UNK         0.0000 
     46 N46         0.5379    1.6028    3.5798 N.am      1 UNK         0.0000 
     47 O47        -0.0937    1.2190    2.4678 O.co2     1 UNK         0.0000 
     48 C48         0.3505    0.6504    4.6938 C.3       1 UNK         0.0000 
     49 C49         0.8563   -0.7525    4.2797 C.3       1 UNK         0.0000 
     50 C50         0.5854   -1.8663    5.2822 C.3       1 UNK         0.0000 
     51 N51         1.1236   -3.1162    4.7554 N.am      1 UNK         0.0000 
     52 H52         1.8988   -5.7280    4.6872 H         1 UNK         0.0000 
     53 H53         1.8686   -5.0127    3.1087 H         1 UNK         0.0000 
     54 H54        -0.1983   -7.0164    4.2575 H         1 UNK         0.0000 
     55 H55         1.1741   -7.3967    3.2810 H         1 UNK         0.0000 
     56 H56        -0.1549   -9.3011    1.5152 H         1 UNK         0.0000 
     57 H57        -1.8511   -8.3121   -0.0639 H         1 UNK         0.0000 
     58 H58        -1.8844   -6.5749   -0.0604 H         1 UNK         0.0000 
     59 H59        -1.0093   -7.5109   -2.1941 H         1 UNK         0.0000 
     60 H60         0.2725   -8.3114   -1.3464 H         1 UNK         0.0000 
     61 H61         1.1558   -6.0079   -0.6407 H         1 UNK         0.0000 
     62 H62         1.2482   -6.4079   -2.3321 H         1 UNK         0.0000 
     63 H63        -0.9390   -5.0939   -2.6846 H         1 UNK         0.0000 
     64 H64        -0.7948   -4.5369   -1.0297 H         1 UNK         0.0000 
     65 H65         1.3996   -4.1540   -3.1229 H         1 UNK         0.0000 
     66 H66         1.4039   -3.5008   -1.5269 H         1 UNK         0.0000 
     67 H67        -0.6766   -2.7877   -3.6000 H         1 UNK         0.0000 
     68 H68         0.3691    0.1233   -4.2405 H         1 UNK         0.0000 
     69 H69        -1.1088   -0.7135   -4.1509 H         1 UNK         0.0000 
     70 H70        -1.9753    0.6209   -2.4222 H         1 UNK         0.0000 
     71 H71        -1.2870    1.7379   -3.4894 H         1 UNK         0.0000 
     72 H72         2.4660    1.9095   -3.0950 H         1 UNK         0.0000 
     73 H73         0.9620    2.2980   -3.8445 H         1 UNK         0.0000 
     74 H74         2.7421    4.0678   -3.9054 H         1 UNK         0.0000 
     75 H75         2.5549    4.3709   -2.2221 H         1 UNK         0.0000 
     76 H76         1.3222    5.7845   -4.1650 H         1 UNK         0.0000 
     77 H77         0.1423    4.5326   -4.0854 H         1 UNK         0.0000 
     78 H78        -0.7189    5.4895   -2.1783 H         1 UNK         0.0000 
     79 H79        -1.2286    7.4460   -0.9823 H         1 UNK         0.0000 
     80 H80         0.0445    8.5748   -0.8157 H         1 UNK         0.0000 
     81 H81         1.0525    7.4217    1.0945 H         1 UNK         0.0000 
     82 H82        -0.5560    7.8179    1.4312 H         1 UNK         0.0000 
     83 H83        -3.4378    5.8221    1.0345 H         1 UNK         0.0000 
     84 H84        -2.4906    7.0940    1.6930 H         1 UNK         0.0000 
     85 H85        -4.1172    6.3231    3.3012 H         1 UNK         0.0000 
     86 H86        -3.5207    4.7042    3.2785 H         1 UNK         0.0000 
     87 H87        -2.8622    6.3752    5.2173 H         1 UNK         0.0000 
     88 H88        -1.7174    7.0323    4.1021 H         1 UNK         0.0000 
     89 H89        -1.7755    4.1595    4.9984 H         1 UNK         0.0000 
     90 H90         0.0307    3.2803    6.0771 H         1 UNK         0.0000 
     91 H91         1.1548    4.4887    6.5273 H         1 UNK         0.0000 
     92 H92         2.6790    4.0312    4.6842 H         1 UNK         0.0000 
     93 H93         2.3657    2.5795    5.5401 H         1 UNK         0.0000 
     94 H94         0.8265    0.9401    5.6377 H         1 UNK         0.0000 
     95 H95        -0.7182    0.6018    4.9307 H         1 UNK         0.0000 
     96 H96         1.9242   -0.6853    4.0733 H         1 UNK         0.0000 
     97 H97         0.3780   -1.0594    3.3491 H         1 UNK         0.0000 
     98 H98        -0.4911   -1.9176    5.4682 H         1 UNK         0.0000 
     99 H99         1.0385   -1.6292    6.2436 H         1 UNK         0.0000 
    100 H100        2.0754   -3.0935    4.4295 H         1 UNK         0.0000 
@<TRIPOS>BOND
     1    1   21 nc   
     2    1   23 nc   
     3    1   33 nc   
     4    1   35 nc   
     5    1   45 nc   
     6    1   47 nc   
     7    2    3 2    
     8    3   51 am   BACKBONE|DICT|INTERRES
     9    3    4 1    
    10    4   52 1    
    11    4    5 1    
    12    4   53 1    
    13    5   54 1    
    14    5    6 1    
    15    5   55 1    
    16    6    7 2    
    17    6    8 am   BACKBONE|DICT|INTERRES
    18    8    9 1    
    19    8   10 1    
    20    9   56 1    
    21   10   58 1    
    22   10   11 1    
    23   10   57 1    
    24   11   60 1    
    25   11   12 1    
    26   11   59 1    
    27   12   61 1    
    28   12   13 1    
    29   12   62 1    
    30   13   64 1    
    31   13   14 1    
    32   13   63 1    
    33   14   66 1    
    34   14   15 1    
    35   14   65 1    
    36   15   16 am   BACKBONE|DICT|INTERRES
    37   15   67 1    
    38   16   17 2    
    39   16   18 1    
    40   18   19 1    
    41   18   68 1    
    42   18   69 1    
    43   19   70 1    
    44   19   20 1    
    45   19   71 1    
    46   20   21 2    
    47   20   22 am   BACKBONE|DICT|INTERRES
    48   22   23 1    
    49   22   24 1    
    50   24   25 1    
    51   24   72 1    
    52   24   73 1    
    53   25   75 1    
    54   25   26 1    
    55   25   74 1    
    56   26   27 1    
    57   26   76 1    
    58   26   77 1    
    59   27   78 1    
    60   27   28 am   BACKBONE|DICT|INTERRES
    61   28   30 1    
    62   28   29 2    
    63   30   31 1    
    64   30   79 1    
    65   30   80 1    
    66   31   81 1    
    67   31   32 1    
    68   31   82 1    
    69   32   33 2    
    70   32   34 am   BACKBONE|DICT|INTERRES
    71   34   36 1    
    72   34   35 1    
    73   36   37 1    
    74   36   83 1    
    75   36   84 1    
    76   37   85 1    
    77   37   86 1    
    78   37   38 1    
    79   38   39 1    
    80   38   87 1    
    81   38   88 1    
    82   39   40 am   BACKBONE|DICT|INTERRES
    83   39   89 1    
    84   40   42 1    
    85   40   41 2    
    86   42   90 1    
    87   42   91 1    
    88   42   43 1    
    89   43   93 1    
    90   43   44 1    
    91   43   92 1    
    92   44   46 am   BACKBONE|DICT|INTERRES
    93   44   45 2    
    94   46   48 1    
    95   46   47 1    
    96   48   95 1    
    97   48   94 1    
    98   48   49 1    
    99   49   50 1    
   100   49   96 1    
   101   49   97 1    
   102   50   98 1    
   103   50   99 1    
   104   50   51 1    
   105   51  100 1    
@<TRIPOS>SUBSTRUCTURE
     1 UNK         1 GROUP             0       ****    0 ROOT    
