@<TRIPOS>MOLECULE
185_J6_c1
99   106    1
SMALL
USER_CHARGES


@<TRIPOS>ATOM
      1 Fe1        -0.0034    0.0695   -0.0718 Fe        1 UNK         0.0000 
      2 F2         -0.5286   -3.6049   -4.7737 F         1 UNK         0.0000 
      3 C3         -1.0554   -3.2066   -3.5842 C.ar      1 UNK         0.0000 
      4 C4         -2.3669   -2.7422   -3.6083 C.ar      1 UNK         0.0000 
      5 C5         -2.9871   -2.3646   -2.4315 C.ar      1 UNK         0.0000 
      6 C6         -2.2652   -2.3475   -1.2427 C.ar      1 UNK         0.0000 
      7 C7         -0.9128   -2.6782   -1.2197 C.ar      1 UNK         0.0000 
      8 O8         -0.2744   -2.3097   -0.1834 O.co2     1 UNK         0.0000 
      9 C9         -0.3097   -3.2387   -2.3726 C.ar      1 UNK         0.0000 
     10 C10         1.0347   -3.9573   -2.3163 C.2       1 UNK         0.0000 
     11 O11         1.3886   -4.6580   -1.3625 O.2       1 UNK         0.0000 
     12 N12         1.7436   -3.9675   -3.4595 N.am      1 UNK         0.0000 
     13 C13         2.8524   -4.8804   -3.7447 C.3       1 UNK         0.0000 
     14 C14         4.0763   -4.1806   -4.3491 C.3       1 UNK         0.0000 
     15 C15         4.6361   -3.0494   -3.4671 C.3       1 UNK         0.0000 
     16 C16         5.8846   -2.3822   -4.0870 C.3       1 UNK         0.0000 
     17 C17         6.5000   -1.2034   -3.2910 C.3       1 UNK         0.0000 
     18 H18         7.1315   -0.6635   -3.9966 H         1 UNK         0.0000 
     19 C19         7.4934   -1.6191   -2.1533 C.3       1 UNK         0.0000 
     20 O20         7.0263   -2.6745   -1.3323 O.3       1 UNK         0.0000 
     21 N21         5.5050   -0.1801   -2.9467 N.am      1 UNK         0.0000 
     22 C22         4.8409   -0.0289   -1.7934 C.2       1 UNK         0.0000 
     23 O23         5.1178   -0.7356   -0.8137 O.2       1 UNK         0.0000 
     24 C24         3.8001    1.0969   -1.7996 C.ar      1 UNK         0.0000 
     25 C25         2.6012    1.0286   -1.0440 C.ar      1 UNK         0.0000 
     26 O26         2.2957   -0.0683   -0.4491 O.co2     1 UNK         0.0000 
     27 C27         1.7570    2.1767   -0.9864 C.ar      1 UNK         0.0000 
     28 O28         0.7499    2.3276   -0.2178 O.co2     1 UNK         0.0000 
     29 C29         2.0456    3.2835   -1.7852 C.ar      1 UNK         0.0000 
     30 C30         3.1616    3.3152   -2.6052 C.ar      1 UNK         0.0000 
     31 C31         4.0415    2.2441   -2.5951 C.ar      1 UNK         0.0000 
     32 H32        -2.9057   -2.6914   -4.5392 H         1 UNK         0.0000 
     33 H33        -3.9936   -1.9789   -2.4231 H         1 UNK         0.0000 
     34 H34        -2.7319   -1.9409   -0.3553 H         1 UNK         0.0000 
     35 H35         1.3754   -3.3712   -4.1825 H         1 UNK         0.0000 
     36 H36         3.1787   -5.3738   -2.8242 H         1 UNK         0.0000 
     37 H37         2.4920   -5.6742   -4.3981 H         1 UNK         0.0000 
     38 H38         3.8124   -3.7865   -5.3309 H         1 UNK         0.0000 
     39 H39         4.8562   -4.9282   -4.5136 H         1 UNK         0.0000 
     40 H40         3.8524   -2.3026   -3.3166 H         1 UNK         0.0000 
     41 H41         4.8510   -3.4360   -2.4699 H         1 UNK         0.0000 
     42 H42         6.6515   -3.1416   -4.2607 H         1 UNK         0.0000 
     43 H43         5.5973   -2.0140   -5.0732 H         1 UNK         0.0000 
     44 H44         8.4494   -1.9292   -2.5735 H         1 UNK         0.0000 
     45 H45         7.7215   -0.7563   -1.5255 H         1 UNK         0.0000 
     46 H46         6.1829   -2.3546   -0.9525 H         1 UNK         0.0000 
     47 H47         5.0816    0.3586   -3.6807 H         1 UNK         0.0000 
     48 H48         1.3750    4.1343   -1.7599 H         1 UNK         0.0000 
     49 H49         3.3344    4.1781   -3.2294 H         1 UNK         0.0000 
     50 H50         4.9228    2.3078   -3.2192 H         1 UNK         0.0000 
     51 F51         0.5192    4.7760    3.5831 F         1 UNK         0.0000 
     52 C52         1.0453    3.5834    3.1943 C.ar      1 UNK         0.0000 
     53 C53         2.3598    3.6027    2.7369 C.ar      1 UNK         0.0000 
     54 C54         2.9796    2.4234    2.3681 C.ar      1 UNK         0.0000 
     55 C55         2.2561    1.2358    2.3521 C.ar      1 UNK         0.0000 
     56 C56         0.9019    1.2172    2.6771 C.ar      1 UNK         0.0000 
     57 O57         0.2637    0.1810    2.3077 O.co2     1 UNK         0.0000 
     58 C58         0.2976    2.3726    3.2287 C.ar      1 UNK         0.0000 
     59 C59        -1.0518    2.3208    3.9401 C.2       1 UNK         0.0000 
     60 O60        -1.4204    1.3614    4.6255 O.2       1 UNK         0.0000 
     61 N61        -1.7492    3.4704    3.9616 N.am      1 UNK         0.0000 
     62 C62        -2.8599    3.7570    4.8717 C.3       1 UNK         0.0000 
     63 C63        -4.0799    4.3653    4.1686 C.3       1 UNK         0.0000 
     64 C64        -4.6402    3.4839    3.0374 C.3       1 UNK         0.0000 
     65 C65        -5.8819    4.1102    2.3637 C.3       1 UNK         0.0000 
     66 C66        -6.4967    3.3161    1.1833 C.3       1 UNK         0.0000 
     67 H67        -7.1225    4.0230    0.6384 H         1 UNK         0.0000 
     68 C68        -7.4978    2.1849    1.5971 C.3       1 UNK         0.0000 
     69 O69        -7.0370    1.3595    2.6517 O.3       1 UNK         0.0000 
     70 N70        -5.4984    2.9649    0.1650 N.am      1 UNK         0.0000 
     71 C71        -4.8443    1.8064    0.0138 C.2       1 UNK         0.0000 
     72 O72        -5.1310    0.8271    0.7157 O.2       1 UNK         0.0000 
     73 C73        -3.7998    1.8073   -1.1109 C.ar      1 UNK         0.0000 
     74 C74        -2.6044    1.0489   -1.0371 C.ar      1 UNK         0.0000 
     75 O75        -2.3022    0.4545    0.0605 O.co2     1 UNK         0.0000 
     76 C76        -1.7566    0.9872   -2.1848 C.ar      1 UNK         0.0000 
     77 O77        -0.7519    0.2161   -2.3316 O.co2     1 UNK         0.0000 
     78 C78        -2.0421    1.7851   -3.2927 C.ar      1 UNK         0.0000 
     79 C79        -3.1555    2.6071   -3.3290 C.ar      1 UNK         0.0000 
     80 C80        -4.0385    2.6010   -2.2590 C.ar      1 UNK         0.0000 
     81 H81         2.9006    4.5323    2.6853 H         1 UNK         0.0000 
     82 H82         3.9882    2.4115    1.9876 H         1 UNK         0.0000 
     83 H83         2.7221    0.3461    1.9502 H         1 UNK         0.0000 
     84 H84        -1.3686    4.1967    3.3770 H         1 UNK         0.0000 
     85 H85        -3.1898    2.8364    5.3627 H         1 UNK         0.0000 
     86 H86        -2.5003    4.4078    5.6681 H         1 UNK         0.0000 
     87 H87        -3.8120    5.3457    3.7736 H         1 UNK         0.0000 
     88 H88        -4.8607    4.5336    4.9145 H         1 UNK         0.0000 
     89 H89        -3.8546    3.3270    2.2941 H         1 UNK         0.0000 
     90 H90        -4.8621    2.4889    3.4259 H         1 UNK         0.0000 
     91 H91        -6.6509    4.2898    3.1197 H         1 UNK         0.0000 
     92 H92        -5.5867    5.0941    1.9956 H         1 UNK         0.0000 
     93 H93        -8.4518    2.6107    1.9061 H         1 UNK         0.0000 
     94 H94        -7.7283    1.5594    0.7334 H         1 UNK         0.0000 
     95 H95        -6.1970    0.9735    2.3306 H         1 UNK         0.0000 
     96 H96        -5.0633    3.6968   -0.3672 H         1 UNK         0.0000 
     97 H97        -1.3693    1.7564   -4.1425 H         1 UNK         0.0000 
     98 H98        -3.3257    3.2299   -4.1933 H         1 UNK         0.0000 
     99 H99        -4.9182    3.2265   -2.3260 H         1 UNK         0.0000 
@<TRIPOS>BOND
     1    1    8 nc   
     2    1   26 nc   
     3    1   28 nc   
     4    1   57 nc   
     5    1   75 nc   
     6    1   77 nc   
     7    2    3 1    
     8    3    4 ar   
     9    3    9 ar   
    10    4    5 ar   
    11    4   32 1    
    12    5    6 ar   
    13    5   33 1    
    14    6    7 ar   
    15    6   34 1    
    16    7    8 1    
    17    7    9 ar   
    18    9   10 1    
    19   10   11 2    
    20   10   12 am   BACKBONE|DICT|INTERRES
    21   12   13 1    
    22   12   35 1    
    23   13   36 1    
    24   13   14 1    
    25   13   37 1    
    26   14   15 1    
    27   14   38 1    
    28   14   39 1    
    29   15   40 1    
    30   15   41 1    
    31   15   16 1    
    32   16   17 1    
    33   16   42 1    
    34   16   43 1    
    35   17   18 1    
    36   17   21 1    
    37   17   19 1    
    38   19   45 1    
    39   19   20 1    
    40   19   44 1    
    41   20   46 1    
    42   21   22 am   BACKBONE|DICT|INTERRES
    43   21   47 1    
    44   22   24 1    
    45   22   23 2    
    46   24   25 ar   
    47   24   31 ar   
    48   25   27 ar   
    49   25   26 1    
    50   27   28 1    
    51   27   29 ar   
    52   29   48 1    
    53   29   30 ar   
    54   30   31 ar   
    55   30   49 1    
    56   31   50 1    
    57   51   52 1    
    58   52   58 ar   
    59   52   53 ar   
    60   53   54 ar   
    61   53   81 1    
    62   54   55 ar   
    63   54   82 1    
    64   55   56 ar   
    65   55   83 1    
    66   56   58 ar   
    67   56   57 1    
    68   58   59 1    
    69   59   60 2    
    70   59   61 am   BACKBONE|DICT|INTERRES
    71   61   62 1    
    72   61   84 1    
    73   62   85 1    
    74   62   86 1    
    75   62   63 1    
    76   63   88 1    
    77   63   64 1    
    78   63   87 1    
    79   64   90 1    
    80   64   65 1    
    81   64   89 1    
    82   65   91 1    
    83   65   66 1    
    84   65   92 1    
    85   66   67 1    
    86   66   68 1    
    87   66   70 1    
    88   68   69 1    
    89   68   93 1    
    90   68   94 1    
    91   69   95 1    
    92   70   71 am   BACKBONE|DICT|INTERRES
    93   70   96 1    
    94   71   72 2    
    95   71   73 1    
    96   73   74 ar   
    97   73   80 ar   
    98   74   75 1    
    99   74   76 ar   
   100   76   77 1    
   101   76   78 ar   
   102   78   79 ar   
   103   78   97 1    
   104   79   80 ar   
   105   79   98 1    
   106   80   99 1    
@<TRIPOS>SUBSTRUCTURE
     1 UNK         1 GROUP             0       ****    0 ROOT    
