@<TRIPOS>MOLECULE
011_r3_c1
85   94    1
SMALL
USER_CHARGES


@<TRIPOS>ATOM
      1 Fe1         0.0000    0.0000    0.0000 Fe        1 UNK         0.0000 
      2 C2         -2.1589    7.8807   -0.8171 C.ar      1 UNK         0.0000 
      3 N3         -3.2738    8.2682   -0.1775 N.pl3     1 UNK         0.0000 
      4 H4         -3.6320    9.2443   -0.0764 H         1 UNK         0.0000 
      5 C5         -3.8333    7.1412    0.3027 C.ar      1 UNK         0.0000 
      6 N6         -3.1179    6.0413   -0.0066 N.2       1 UNK         0.0000 
      7 C7         -2.0656    6.5087   -0.7090 C.ar      1 UNK         0.0000 
      8 C8         -0.9746    5.6495   -1.2735 C.3       1 UNK         0.0000 
      9 C9         -0.2389    4.9057   -0.1567 C.3       1 UNK         0.0000 
     10 N10         0.8631    4.1361   -0.7032 N.am      1 UNK         0.0000 
     11 O11         1.8719    4.7370   -1.3703 O.3       1 UNK         0.0000 
     12 C12         2.4857    3.6595   -2.0558 C.3       1 UNK         0.0000 
     13 H13         1.9109    3.5210   -3.0014 H         1 UNK         0.0000 
     14 C14         3.9446    3.9498   -2.3867 C.3       1 UNK         0.0000 
     15 C15         2.3340    2.4209   -1.1572 C.3       1 UNK         0.0000 
     16 H16         3.0957    2.4180   -0.3485 H         1 UNK         0.0000 
     17 C17         1.0260    2.8079   -0.5605 C.2       1 UNK         0.0000 
     18 O18         0.2500    2.0885    0.0691 O.co2     1 UNK         0.0000 
     19 N19         2.3585    1.1524   -1.8918 N.am      1 UNK         0.0000 
     20 C20         2.2293   -0.0311   -1.2201 C.2       1 UNK         0.0000 
     21 O21         2.0800    0.0000    0.0000 O.co2     1 UNK         0.0000 
     22 C22         1.9882   -1.3495   -1.8858 C.ar      1 UNK         0.0000 
     23 C23         1.1897   -2.3616   -1.2312 C.ar      1 UNK         0.0000 
     24 O24         0.4810   -2.0885   -0.0691 O.co2     1 UNK         0.0000 
     25 C25         1.0160   -3.6090   -1.8677 C.ar      1 UNK         0.0000 
     26 O26         0.2907   -4.5771   -1.2692 O.3       1 UNK         0.0000 
     27 C27         1.5397   -3.8224   -3.1518 C.ar      1 UNK         0.0000 
     28 C28         2.2273   -2.8076   -3.8150 C.ar      1 UNK         0.0000 
     29 C29         2.4573   -1.5847   -3.1878 C.ar      1 UNK         0.0000 
     30 H30        -1.4687    8.5477   -1.3207 H         1 UNK         0.0000 
     31 H31        -4.7542    7.1192    0.8713 H         1 UNK         0.0000 
     32 H32        -1.4109    4.9180   -1.9863 H         1 UNK         0.0000 
     33 H33        -0.2509    6.2922   -1.8217 H         1 UNK         0.0000 
     34 H34         0.1735    5.6453    0.5615 H         1 UNK         0.0000 
     35 H35        -0.9547    4.2551    0.3932 H         1 UNK         0.0000 
     36 H36         4.0127    4.8586   -3.0226 H         1 UNK         0.0000 
     37 H37         4.5223    4.1164   -1.4524 H         1 UNK         0.0000 
     38 H38         4.3826    3.0902   -2.9364 H         1 UNK         0.0000 
     39 H39         2.4035    1.1687   -2.9209 H         1 UNK         0.0000 
     40 H40         0.1071   -5.4256   -1.6976 H         1 UNK         0.0000 
     41 H41         1.3698   -4.7632   -3.6601 H         1 UNK         0.0000 
     42 H42         2.5785   -2.9658   -4.8266 H         1 UNK         0.0000 
     43 H43         2.9963   -0.8222   -3.7326 H         1 UNK         0.0000 
     44 C44         2.1572   -0.8245    7.8862 C.ar      1 UNK         0.0000 
     45 N45         3.2755   -0.1888    8.2684 N.pl3     1 UNK         0.0000 
     46 H46         3.6355   -0.0936    9.2507 H         1 UNK         0.0000 
     47 C47         3.8351    0.2922    7.1506 C.ar      1 UNK         0.0000 
     48 N48         3.1161   -0.0079    6.0496 N.2       1 UNK         0.0000 
     49 C49         2.0620   -0.7082    6.5155 C.ar      1 UNK         0.0000 
     50 C50         0.9686   -1.2671    5.6537 C.3       1 UNK         0.0000 
     51 C51         0.2336   -0.1526    4.9074 C.3       1 UNK         0.0000 
     52 N52        -0.8670   -0.7029    4.1339 N.am      1 UNK         0.0000 
     53 O53        -1.8795   -1.3609    4.7310 O.3       1 UNK         0.0000 
     54 C54        -2.4891   -2.0526    3.6566 C.3       1 UNK         0.0000 
     55 H55        -1.9152   -2.9994    3.5227 H         1 UNK         0.0000 
     56 C56        -3.9469   -2.3844    3.9483 C.3       1 UNK         0.0000 
     57 C57        -2.3344   -1.1524    2.4171 C.3       1 UNK         0.0000 
     58 H58        -3.0985   -0.3451    2.4175 H         1 UNK         0.0000 
     59 C59        -1.0264   -0.5593    2.8056 C.2       1 UNK         0.0000 
     60 O60        -0.2500    0.0691    2.0885 O.co2     1 UNK         0.0000 
     61 N61        -2.3611   -1.8902    1.1531 N.am      1 UNK         0.0000 
     62 C62        -2.2301   -1.2201   -0.0312 C.2       1 UNK         0.0000 
     63 O63        -2.0800    0.0000    0.0000 O.co2     1 UNK         0.0000 
     64 C64        -1.9865   -1.8866   -1.3492 C.ar      1 UNK         0.0000 
     65 C65        -1.1876   -1.2320   -2.3611 C.ar      1 UNK         0.0000 
     66 O66        -0.4810   -0.0691   -2.0885 O.co2     1 UNK         0.0000 
     67 C67        -1.0108   -1.8692   -3.6077 C.ar      1 UNK         0.0000 
     68 O68        -0.2843   -1.2704   -4.5749 O.3       1 UNK         0.0000 
     69 C69        -1.5320   -3.1541   -3.8209 C.ar      1 UNK         0.0000 
     70 C70        -2.2206   -3.8173   -2.8067 C.ar      1 UNK         0.0000 
     71 C71        -2.4536   -3.1894   -1.5845 C.ar      1 UNK         0.0000 
     72 H72         1.4677   -1.3281    8.5511 H         1 UNK         0.0000 
     73 H73         4.7577    0.8579    7.1315 H         1 UNK         0.0000 
     74 H74         1.4049   -1.9799    4.9229 H         1 UNK         0.0000 
     75 H75         0.2456   -1.8162    6.2965 H         1 UNK         0.0000 
     76 H76        -0.1794    0.5709    5.6474 H         1 UNK         0.0000 
     77 H77         0.9508    0.3967    4.2582 H         1 UNK         0.0000 
     78 H78        -4.0162   -3.0178    4.8582 H         1 UNK         0.0000 
     79 H79        -4.5273   -1.4497    4.1175 H         1 UNK         0.0000 
     80 H80        -4.3858   -2.9342    3.0909 H         1 UNK         0.0000 
     81 H81        -2.4062   -2.9199    1.1702 H         1 UNK         0.0000 
     82 H82        -0.0979   -1.6991   -5.4226 H         1 UNK         0.0000 
     83 H83        -1.3593   -3.6630   -4.7610 H         1 UNK         0.0000 
     84 H84        -2.5700   -4.8295   -2.9648 H         1 UNK         0.0000 
     85 H85        -2.9930   -3.7345   -0.8225 H         1 UNK         0.0000 
@<TRIPOS>BOND
     1    1   18 nc   
     2    1   21 nc   
     3    1   24 nc   
     4    1   60 nc   
     5    1   63 nc   
     6    1   66 nc   
     7    2    7 ar   
     8    2    3 ar   
     9    2   30 1    
    10    3    4 1    
    11    3    5 ar   
    12    5   31 1    
    13    5    6 ar   
    14    6    7 ar   
    15    7    8 1    
    16    8    9 1    
    17    8   32 1    
    18    8   33 1    
    19    9   35 1    
    20    9   34 1    
    21    9   10 1    
    22   10   17 am   BACKBONE|DICT|INTERRES
    23   10   11 1    
    24   11   12 1    
    25   12   13 1    
    26   12   15 1    
    27   12   14 1    
    28   14   37 1    
    29   14   36 1    
    30   14   38 1    
    31   15   17 1    
    32   15   16 1    
    33   15   19 1    
    34   17   18 2    
    35   19   20 am   BACKBONE|DICT|INTERRES
    36   19   39 1    
    37   20   22 1    
    38   20   21 2    
    39   22   23 ar   
    40   22   29 ar   
    41   23   24 1    
    42   23   25 ar   
    43   25   26 1    
    44   25   27 ar   
    45   26   40 1    
    46   27   28 ar   
    47   27   41 1    
    48   28   29 ar   
    49   28   42 1    
    50   29   43 1    
    51   44   45 ar   
    52   44   72 1    
    53   44   49 ar   
    54   45   46 1    
    55   45   47 ar   
    56   47   48 ar   
    57   47   73 1    
    58   48   49 ar   
    59   49   50 1    
    60   50   75 1    
    61   50   51 1    
    62   50   74 1    
    63   51   76 1    
    64   51   52 1    
    65   51   77 1    
    66   52   53 1    
    67   52   59 am   BACKBONE|DICT|INTERRES
    68   53   54 1    
    69   54   55 1    
    70   54   56 1    
    71   54   57 1    
    72   56   79 1    
    73   56   78 1    
    74   56   80 1    
    75   57   58 1    
    76   57   59 1    
    77   57   61 1    
    78   59   60 2    
    79   61   81 1    
    80   61   62 am   BACKBONE|DICT|INTERRES
    81   62   64 1    
    82   62   63 2    
    83   64   65 ar   
    84   64   71 ar   
    85   65   66 1    
    86   65   67 ar   
    87   67   68 1    
    88   67   69 ar   
    89   68   82 1    
    90   69   70 ar   
    91   69   83 1    
    92   70   71 ar   
    93   70   84 1    
    94   71   85 1    
@<TRIPOS>SUBSTRUCTURE
     1 UNK         1 GROUP             0       ****    0 ROOT    
