@<TRIPOS>MOLECULE
223_c1
76   80    1
SMALL
USER_CHARGES


@<TRIPOS>ATOM
      1 Fe1         0.2477    1.8444    0.1227 Fe        1 UNK         0.0000 
      2 C2         -0.0779    3.0059   -4.1163 C.3       1 UNK         0.0000 
      3 C3          0.3189    2.6116   -2.7011 C.2       1 UNK         0.0000 
      4 O4         -0.4912    2.1224   -1.9041 O.co2     1 UNK         0.0000 
      5 N5          1.5584    2.7275   -2.1842 N.am      1 UNK         0.0000 
      6 O6          1.7301    2.2001   -0.9803 O.co2     1 UNK         0.0000 
      7 C7          2.6581    3.5713   -2.6825 C.3       1 UNK         0.0000 
      8 C8          2.9998    4.8063   -1.8015 C.3       1 UNK         0.0000 
      9 C9          1.9116    5.9099   -1.7494 C.3       1 UNK         0.0000 
     10 N10         1.0249    5.8097   -0.5905 N.am      1 UNK         0.0000 
     11 C11        -0.3199    5.7607   -0.5743 C.2       1 UNK         0.0000 
     12 O12        -0.9902    5.8481   -1.6085 O.2       1 UNK         0.0000 
     13 C13        -1.0081    5.6197    0.8186 C.3       1 UNK         0.0000 
     14 C14        -0.8288    4.2761    1.6192 C.3       1 UNK         0.0000 
     15 O15        -1.3150    3.1956    0.8435 O.co2     1 UNK         0.0000 
     16 C16         0.7214    4.0642    1.8707 C.2       1 UNK         0.0000 
     17 O17         1.1227    3.0169    1.2856 O.co2     1 UNK         0.0000 
     18 O18         1.4338    5.0006    2.2994 O.co2     1 UNK         0.0000 
     19 C19        -1.5447    4.3436    3.0171 C.3       1 UNK         0.0000 
     20 C20        -1.4592    3.1338    3.9851 C.2       1 UNK         0.0000 
     21 O21        -0.9761    3.2761    5.1118 O.2       1 UNK         0.0000 
     22 N22        -1.9958    1.9644    3.5858 N.am      1 UNK         0.0000 
     23 C23        -2.0607    0.7565    4.4119 C.3       1 UNK         0.0000 
     24 C24        -2.0131   -0.5770    3.6350 C.3       1 UNK         0.0000 
     25 C25        -0.6701   -0.9562    2.9582 C.3       1 UNK         0.0000 
     26 N26        -0.4749   -0.3516    1.6467 N.am      1 UNK         0.0000 
     27 O27         0.2292    0.7441    1.5977 O.co2     1 UNK         0.0000 
     28 C28        -0.9308   -0.7527    0.4516 C.2       1 UNK         0.0000 
     29 O29        -0.6792    0.0787   -0.4256 O.co2     1 UNK         0.0000 
     30 C30        -1.4973   -2.0633    0.3182 C.2       1 UNK         0.0000 
     31 C31        -1.3919   -2.7699   -0.8179 C.2       1 UNK         0.0000 
     32 C32        -1.8310   -4.2064   -0.8928 C.3       1 UNK         0.0000 
     33 C33        -1.2057   -4.9768   -2.0663 C.3       1 UNK         0.0000 
     34 C34        -1.2266   -6.4935   -1.8242 C.3       1 UNK         0.0000 
     35 C35        -0.6153   -7.3073   -2.9775 C.3       1 UNK         0.0000 
     36 C36        -0.4174   -8.8016   -2.6323 C.3       1 UNK         0.0000 
     37 C37        -1.6855   -9.5637   -2.1937 C.3       1 UNK         0.0000 
     38 C38        -2.7800   -9.6119   -3.2701 C.3       1 UNK         0.0000 
     39 H39         0.6507    3.6327   -4.6235 H         1 UNK         0.0000 
     40 H40        -1.0163    3.5490   -4.0671 H         1 UNK         0.0000 
     41 H41        -0.2192    2.1061   -4.7095 H         1 UNK         0.0000 
     42 H42         2.4809    3.9464   -3.6906 H         1 UNK         0.0000 
     43 H43         3.5347    2.9287   -2.7613 H         1 UNK         0.0000 
     44 H44         3.9126    5.2633   -2.1947 H         1 UNK         0.0000 
     45 H45         3.2619    4.4743   -0.7962 H         1 UNK         0.0000 
     46 H46         2.3766    6.8957   -1.6914 H         1 UNK         0.0000 
     47 H47         1.3594    5.9310   -2.6921 H         1 UNK         0.0000 
     48 H48         1.4571    5.6773    0.3264 H         1 UNK         0.0000 
     49 H49        -2.0692    5.7855    0.6685 H         1 UNK         0.0000 
     50 H50        -0.6712    6.4530    1.4317 H         1 UNK         0.0000 
     51 H51        -1.1495    5.1989    3.5637 H         1 UNK         0.0000 
     52 H52        -2.6015    4.5503    2.8718 H         1 UNK         0.0000 
     53 H53        -2.2285    1.9271    2.6015 H         1 UNK         0.0000 
     54 H54        -2.9739    0.8010    5.0029 H         1 UNK         0.0000 
     55 H55        -1.2433    0.7581    5.1349 H         1 UNK         0.0000 
     56 H56        -2.2096   -1.3603    4.3714 H         1 UNK         0.0000 
     57 H57        -2.8330   -0.6103    2.9155 H         1 UNK         0.0000 
     58 H58         0.1654   -0.6800    3.6091 H         1 UNK         0.0000 
     59 H59        -0.5945   -2.0434    2.8785 H         1 UNK         0.0000 
     60 H60        -1.9697   -2.4744    1.1945 H         1 UNK         0.0000 
     61 H61        -0.9333   -2.3329   -1.7007 H         1 UNK         0.0000 
     62 H62        -2.9228   -4.2309   -0.9330 H         1 UNK         0.0000 
     63 H63        -1.5366   -4.6786    0.0519 H         1 UNK         0.0000 
     64 H64        -0.1672   -4.6591   -2.1929 H         1 UNK         0.0000 
     65 H65        -1.7205   -4.7155   -2.9943 H         1 UNK         0.0000 
     66 H66        -2.2536   -6.8202   -1.6450 H         1 UNK         0.0000 
     67 H67        -0.6729   -6.7109   -0.9072 H         1 UNK         0.0000 
     68 H68         0.3566   -6.8900   -3.2472 H         1 UNK         0.0000 
     69 H69        -1.2344   -7.2002   -3.8706 H         1 UNK         0.0000 
     70 H70         0.3236   -8.8824   -1.8354 H         1 UNK         0.0000 
     71 H71         0.0250   -9.3144   -3.4874 H         1 UNK         0.0000 
     72 H72        -2.0889   -9.1265   -1.2778 H         1 UNK         0.0000 
     73 H73        -1.4096  -10.5864   -1.9252 H         1 UNK         0.0000 
     74 H74        -2.4072  -10.0685   -4.1893 H         1 UNK         0.0000 
     75 H75        -3.1460   -8.6123   -3.5130 H         1 UNK         0.0000 
     76 H76        -3.6328  -10.2012   -2.9263 H         1 UNK         0.0000 
@<TRIPOS>BOND
     1    1    4 nc   
     2    1    6 nc   
     3    1   15 nc   
     4    1   17 nc   
     5    1   27 nc   
     6    1   29 nc   
     7    2    3 1    
     8    2   39 1    
     9    2   40 1    
    10    2   41 1    
    11    3    5 am   BACKBONE|DICT|INTERRES
    12    3    4 2    
    13    5    6 1    
    14    5    7 1    
    15    7   43 1    
    16    7    8 1    
    17    7   42 1    
    18    8    9 1    
    19    8   45 1    
    20    8   44 1    
    21    9   46 1    
    22    9   10 1    
    23    9   47 1    
    24   10   11 am   BACKBONE|DICT|INTERRES
    25   10   48 1    
    26   11   13 1    
    27   11   12 2    
    28   13   50 1    
    29   13   14 1    
    30   13   49 1    
    31   14   15 1    
    32   14   16 1    
    33   14   19 1    
    34   16   18 2    
    35   16   17 1    
    36   19   51 1    
    37   19   20 1    
    38   19   52 1    
    39   20   21 2    
    40   20   22 am   BACKBONE|DICT|INTERRES
    41   22   23 1    
    42   22   53 1    
    43   23   54 1    
    44   23   55 1    
    45   23   24 1    
    46   24   56 1    
    47   24   25 1    
    48   24   57 1    
    49   25   58 1    
    50   25   26 1    
    51   25   59 1    
    52   26   27 1    
    53   26   28 am   BACKBONE|DICT|INTERRES
    54   28   30 1    
    55   28   29 2    
    56   30   60 1    
    57   30   31 2    
    58   31   32 1    
    59   31   61 1    
    60   32   62 1    
    61   32   63 1    
    62   32   33 1    
    63   33   34 1    
    64   33   64 1    
    65   33   65 1    
    66   34   66 1    
    67   34   67 1    
    68   34   35 1    
    69   35   36 1    
    70   35   68 1    
    71   35   69 1    
    72   36   37 1    
    73   36   70 1    
    74   36   71 1    
    75   37   73 1    
    76   37   72 1    
    77   37   38 1    
    78   38   76 1    
    79   38   74 1    
    80   38   75 1    
@<TRIPOS>SUBSTRUCTURE
     1 UNK         1 GROUP             0       ****    0 ROOT    
