@<TRIPOS>MOLECULE
062_c1
110   115    1
SMALL
USER_CHARGES


@<TRIPOS>ATOM
      1 Fe1        -1.3591   -4.1426    0.2286 Fe        1 UNK         0.0000 
      2 C2         -2.4814   -4.7102    4.4284 C.3       1 UNK         0.0000 
      3 C3         -2.2527   -4.1366    3.0296 C.2       1 UNK         0.0000 
      4 O4         -2.5169   -4.7676    1.9837 O.co2     1 UNK         0.0000 
      5 N5         -1.6908   -2.9302    2.7896 N.am      1 UNK         0.0000 
      6 O6         -1.7372   -2.5456    1.5409 O.co2     1 UNK         0.0000 
      7 C7         -0.8017   -2.1492    3.7041 C.3       1 UNK         0.0000 
      8 C8          0.4100   -1.3255    3.1093 C.3       1 UNK         0.0000 
      9 C9          0.0920   -0.3961    1.9034 C.3       1 UNK         0.0000 
     10 C10         0.9999    0.8112    1.5252 C.3       1 UNK         0.0000 
     11 H11         1.1858    1.3495    2.4475 H         1 UNK         0.0000 
     12 C12         0.1881    1.7816    0.6362 C.2       1 UNK         0.0000 
     13 O13        -0.6627    1.2961   -0.0988 O.2       1 UNK         0.0000 
     14 N14         0.3603    3.1140    0.6371 N.am      1 UNK         0.0000 
     15 C15         1.3149    4.0540    1.2219 C.3       1 UNK         0.0000 
     16 H16         2.3301    3.6746    1.1135 H         1 UNK         0.0000 
     17 C17         1.0008    4.4137    2.6951 C.3       1 UNK         0.0000 
     18 O18         1.4109    3.4398    3.6334 O.3       1 UNK         0.0000 
     19 C19         1.1385    5.3272    0.3727 C.2       1 UNK         0.0000 
     20 O20         0.0491    5.8982    0.3809 O.2       1 UNK         0.0000 
     21 N21         2.1746    5.7532   -0.3651 N.am      1 UNK         0.0000 
     22 C22         2.1058    6.8426   -1.3552 C.3       1 UNK         0.0000 
     23 H23         3.0986    6.9454   -1.7980 H         1 UNK         0.0000 
     24 C24         1.7627    8.1957   -0.6869 C.3       1 UNK         0.0000 
     25 O25         2.7886    8.5571    0.2253 O.3       1 UNK         0.0000 
     26 C26         1.1604    6.4868   -2.5255 C.2       1 UNK         0.0000 
     27 O27         0.2488    7.2437   -2.8584 O.2       1 UNK         0.0000 
     28 N28         1.4018    5.3062   -3.1148 N.am      1 UNK         0.0000 
     29 C29         0.4940    4.6318   -4.0308 C.3       1 UNK         0.0000 
     30 C30         0.1383    3.3354   -3.3059 C.2       1 UNK         0.0000 
     31 O31        -0.3913    3.3846   -2.2002 O.2       1 UNK         0.0000 
     32 N32         0.4587    2.1856   -3.9115 N.am      1 UNK         0.0000 
     33 C33         0.2258    0.8286   -3.4125 C.3       1 UNK         0.0000 
     34 H34        -0.1233    0.8556   -2.3877 H         1 UNK         0.0000 
     35 C35        -0.8351    0.1501   -4.3251 C.3       1 UNK         0.0000 
     36 C36        -1.6416   -1.0156   -3.7181 C.3       1 UNK         0.0000 
     37 C37        -0.9817   -2.4124   -3.7273 C.3       1 UNK         0.0000 
     38 N38        -1.4967   -3.2737   -2.6538 N.am      1 UNK         0.0000 
     39 O39        -1.2518   -2.8451   -1.4321 O.co2     1 UNK         0.0000 
     40 C40        -2.1373   -4.4686   -2.7148 C.2       1 UNK         0.0000 
     41 O41        -2.3124   -4.9626   -1.5866 O.co2     1 UNK         0.0000 
     42 C42        -2.5207   -5.1629   -4.0180 C.3       1 UNK         0.0000 
     43 C43         1.6139    0.1764   -3.5329 C.2       1 UNK         0.0000 
     44 O44         2.1861    0.2880   -4.6196 O.2       1 UNK         0.0000 
     45 N45         2.2562   -0.4212   -2.5182 N.am      1 UNK         0.0000 
     46 C46         1.9095   -0.8974   -1.1745 C.3       1 UNK         0.0000 
     47 H47         0.8556   -0.7444   -0.9715 H         1 UNK         0.0000 
     48 C48         2.7894   -0.1048   -0.1685 C.2       1 UNK         0.0000 
     49 O49         3.9909   -0.0170   -0.4353 O.2       1 UNK         0.0000 
     50 N50         2.3289    0.4750    0.9672 N.am      1 UNK         0.0000 
     51 C51         2.2341   -2.4466   -1.1831 C.3       1 UNK         0.0000 
     52 C52         2.8345   -3.1703    0.0655 C.3       1 UNK         0.0000 
     53 C53         2.5484   -4.7279    0.1554 C.3       1 UNK         0.0000 
     54 N54         1.1438   -5.1322    0.3854 N.am      1 UNK         0.0000 
     55 O55         0.3542   -4.0862    0.5840 O.co2     1 UNK         0.0000 
     56 C56         0.4044   -6.2922    0.1837 C.2       1 UNK         0.0000 
     57 O57        -0.8128   -6.0143    0.2304 O.co2     1 UNK         0.0000 
     58 C58         0.7586   -7.6783   -0.0777 C.2       1 UNK         0.0000 
     59 C59         1.8645   -8.4684   -0.0347 C.2       1 UNK         0.0000 
     60 C60         3.3002   -8.0821    0.2262 C.3       1 UNK         0.0000 
     61 C61         1.6963   -9.9735   -0.2726 C.3       1 UNK         0.0000 
     62 C62         1.9520  -10.8518    0.9618 C.3       1 UNK         0.0000 
     63 O63         1.5882  -12.1767    0.6592 O.3       1 UNK         0.0000 
     64 H64        -3.5455   -4.6707    4.6440 H         1 UNK         0.0000 
     65 H65        -2.1526   -5.7446    4.5046 H         1 UNK         0.0000 
     66 H66        -1.9799   -4.1469    5.2053 H         1 UNK         0.0000 
     67 H67        -0.3827   -2.8095    4.4666 H         1 UNK         0.0000 
     68 H68        -1.4555   -1.4551    4.2316 H         1 UNK         0.0000 
     69 H69         0.8156   -0.7092    3.9138 H         1 UNK         0.0000 
     70 H70         1.1979   -2.0216    2.8227 H         1 UNK         0.0000 
     71 H71        -0.9123   -0.0132    2.1076 H         1 UNK         0.0000 
     72 H72         0.0154   -0.9986    1.0016 H         1 UNK         0.0000 
     73 H73        -0.2549    3.5857   -0.0167 H         1 UNK         0.0000 
     74 H74        -0.0582    4.6376    2.8300 H         1 UNK         0.0000 
     75 H75         1.5361    5.3323    2.9518 H         1 UNK         0.0000 
     76 H76         0.9923    3.6678    4.4691 H         1 UNK         0.0000 
     77 H77         3.0455    5.2562   -0.3060 H         1 UNK         0.0000 
     78 H78         0.7978    8.1878   -0.1806 H         1 UNK         0.0000 
     79 H79         1.6796    8.9743   -1.4463 H         1 UNK         0.0000 
     80 H80         2.5006    9.3552    0.6774 H         1 UNK         0.0000 
     81 H81         2.0996    4.7025   -2.7062 H         1 UNK         0.0000 
     82 H82        -0.4181    5.1997   -4.2194 H         1 UNK         0.0000 
     83 H83         0.9709    4.4484   -4.9944 H         1 UNK         0.0000 
     84 H84         1.0248    2.1900   -4.7483 H         1 UNK         0.0000 
     85 H85        -1.5728    0.9152   -4.5754 H         1 UNK         0.0000 
     86 H86        -0.3922   -0.1454   -5.2788 H         1 UNK         0.0000 
     87 H87        -2.5791   -1.1205   -4.2662 H         1 UNK         0.0000 
     88 H88        -1.9358   -0.7295   -2.7050 H         1 UNK         0.0000 
     89 H89        -1.0415   -2.8436   -4.7262 H         1 UNK         0.0000 
     90 H90         0.0912   -2.3192   -3.5502 H         1 UNK         0.0000 
     91 H91        -3.5979   -5.2820   -4.1050 H         1 UNK         0.0000 
     92 H92        -2.1818   -4.6358   -4.9005 H         1 UNK         0.0000 
     93 H93        -2.0686   -6.1498   -4.0496 H         1 UNK         0.0000 
     94 H94         3.2274   -0.5998   -2.7103 H         1 UNK         0.0000 
     95 H95         3.0594    0.9065    1.5067 H         1 UNK         0.0000 
     96 H96         1.3414   -2.9671   -1.5383 H         1 UNK         0.0000 
     97 H97         2.9757   -2.6468   -1.9456 H         1 UNK         0.0000 
     98 H98         3.9169   -3.0205    0.0550 H         1 UNK         0.0000 
     99 H99         2.4634   -2.7062    0.9905 H         1 UNK         0.0000 
    100 H100        2.9250   -5.2279   -0.7352 H         1 UNK         0.0000 
    101 H101        3.1147   -5.0824    1.0133 H         1 UNK         0.0000 
    102 H102        3.6813   -8.5961    1.1097 H         1 UNK         0.0000 
    103 H103        3.9145   -8.3555   -0.6381 H         1 UNK         0.0000 
    104 H104        3.4259   -7.0320    0.3960 H         1 UNK         0.0000 
    105 H105        0.6852  -10.1920   -0.6257 H         1 UNK         0.0000 
    106 H106        2.3525  -10.3044   -1.0788 H         1 UNK         0.0000 
    107 H107        2.9982  -10.8289    1.2558 H         1 UNK         0.0000 
    108 H108        1.3651  -10.5129    1.8121 H         1 UNK         0.0000 
    109 H109        1.8514  -12.7577    1.3804 H         1 UNK         0.0000 
    110 H110       -0.1580   -8.1834   -0.3431 H         1 UNK         0.0000 
@<TRIPOS>BOND
     1    1    4 nc   
     2    1    6 nc   
     3    1   39 nc   
     4    1   41 nc   
     5    1   55 nc   
     6    1   57 nc   
     7    2   64 1    
     8    2   66 1    
     9    2    3 1    
    10    2   65 1    
    11    3    4 2    
    12    3    5 am   BACKBONE|DICT|INTERRES
    13    5    7 1    
    14    5    6 1    
    15    7   68 1    
    16    7   67 1    
    17    7    8 1    
    18    8   69 1    
    19    8    9 1    
    20    8   70 1    
    21    9   71 1    
    22    9   10 1    
    23    9   72 1    
    24   10   11 1    
    25   10   12 1    
    26   10   50 1    
    27   12   13 2    
    28   12   14 am   BACKBONE|DICT|INTERRES
    29   14   15 1    
    30   14   73 1    
    31   15   16 1    
    32   15   17 1    
    33   15   19 1    
    34   17   74 1    
    35   17   75 1    
    36   17   18 1    
    37   18   76 1    
    38   19   20 2    
    39   19   21 am   BACKBONE|DICT|INTERRES
    40   21   77 1    
    41   21   22 1    
    42   22   23 1    
    43   22   24 1    
    44   22   26 1    
    45   24   78 1    
    46   24   25 1    
    47   24   79 1    
    48   25   80 1    
    49   26   27 2    
    50   26   28 am   BACKBONE|DICT|INTERRES
    51   28   81 1    
    52   28   29 1    
    53   29   30 1    
    54   29   82 1    
    55   29   83 1    
    56   30   31 2    
    57   30   32 am   BACKBONE|DICT|INTERRES
    58   32   33 1    
    59   32   84 1    
    60   33   34 1    
    61   33   35 1    
    62   33   43 1    
    63   35   36 1    
    64   35   85 1    
    65   35   86 1    
    66   36   88 1    
    67   36   37 1    
    68   36   87 1    
    69   37   90 1    
    70   37   38 1    
    71   37   89 1    
    72   38   40 am   BACKBONE|DICT|INTERRES
    73   38   39 1    
    74   40   42 1    
    75   40   41 2    
    76   42   91 1    
    77   42   93 1    
    78   42   92 1    
    79   43   45 am   BACKBONE|DICT|INTERRES
    80   43   44 2    
    81   45   46 1    
    82   45   94 1    
    83   46   51 1    
    84   46   47 1    
    85   46   48 1    
    86   48   50 am   BACKBONE|DICT|INTERRES
    87   48   49 2    
    88   50   95 1    
    89   51   52 1    
    90   51   96 1    
    91   51   97 1    
    92   52   98 1    
    93   52   99 1    
    94   52   53 1    
    95   53   54 1    
    96   53  101 1    
    97   53  100 1    
    98   54   55 1    
    99   54   56 am   BACKBONE|DICT|INTERRES
   100   56   57 2    
   101   56   58 1    
   102   58   59 2    
   103   58  110 1    
   104   59   60 1    
   105   59   61 1    
   106   60  104 1    
   107   60  102 1    
   108   60  103 1    
   109   61   62 1    
   110   61  105 1    
   111   61  106 1    
   112   62  107 1    
   113   62  108 1    
   114   62   63 1    
   115   63  109 1    
@<TRIPOS>SUBSTRUCTURE
     1 UNK         1 GROUP             0       ****    0 ROOT    
