@<TRIPOS>MOLECULE
001_c2
46   51    1
SMALL
USER_CHARGES


@<TRIPOS>ATOM
      1 Fe1         0.0000    0.0000    0.0000 Fe        1 UNK         0.0000 
      2 O2         -0.6641    4.8415   -0.0010 O.2       1 UNK         0.0000 
      3 C3          0.6659    5.0344   -0.0007 C.2       1 UNK         0.0000 
      4 O4          1.0687    6.1875   -0.0006 O.3       1 UNK         0.0000 
      5 C5          1.6517    3.8986   -0.0002 C.ar      1 UNK         0.0000 
      6 C6          1.3025    2.5090   -0.0001 C.ar      1 UNK         0.0000 
      7 O7          0.0000    2.0800    0.0000 O.co2     1 UNK         0.0000 
      8 C8          2.3497    1.5209    0.0003 C.ar      1 UNK         0.0000 
      9 O9          2.0726    0.1753    0.0000 O.co2     1 UNK         0.0000 
     10 C10         3.6871    1.9261    0.0004 C.ar      1 UNK         0.0000 
     11 C11         4.0175    3.2735    0.0003 C.ar      1 UNK         0.0000 
     12 C12         3.0200    4.2427    0.0000 C.ar      1 UNK         0.0000 
     13 H13         4.4797    1.1885    0.0005 H         1 UNK         0.0000 
     14 H14         5.0580    3.5715    0.0003 H         1 UNK         0.0000 
     15 H15         3.3332    5.2796   -0.0002 H         1 UNK         0.0000 
     16 O16        -0.0483   -4.8530   -0.5887 O.2       1 UNK         0.0000 
     17 C17        -0.0768   -5.0107    0.7455 C.2       1 UNK         0.0000 
     18 O18        -0.1093   -6.1537    1.1765 O.3       1 UNK         0.0000 
     19 C19        -0.0707   -3.8504    1.7033 C.ar      1 UNK         0.0000 
     20 C20        -0.0335   -2.4688    1.3216 C.ar      1 UNK         0.0000 
     21 O21         0.0000   -2.0800    0.0000 O.co2     1 UNK         0.0000 
     22 C22        -0.0328   -1.4552    2.3588 C.ar      1 UNK         0.0000 
     23 O23         0.0000   -0.1061    2.0773 O.co2     1 UNK         0.0000 
     24 C24        -0.0677   -1.8395    3.7018 C.ar      1 UNK         0.0000 
     25 C25        -0.1032   -3.1784    4.0561 C.ar      1 UNK         0.0000 
     26 C26        -0.1047   -4.1658    3.0779 C.ar      1 UNK         0.0000 
     27 H27        -0.0680   -1.0888    4.4825 H         1 UNK         0.0000 
     28 H28        -0.1304   -3.4559    5.1022 H         1 UNK         0.0000 
     29 H29        -0.1333   -5.1950    3.4132 H         1 UNK         0.0000 
     30 O30        -4.8607    0.0107    0.5326 O.3       1 UNK         0.0000 
     31 C31        -4.9932    0.0194   -0.8043 C.2       1 UNK         0.0000 
     32 O32        -6.1282    0.0286   -1.2566 O.2       1 UNK         0.0000 
     33 C33        -3.8152    0.0181   -1.7412 C.ar      1 UNK         0.0000 
     34 C34        -2.4390    0.0086   -1.3353 C.ar      1 UNK         0.0000 
     35 O35        -2.0800    0.0000    0.0000 O.co2     1 UNK         0.0000 
     36 C36        -1.4060    0.0087   -2.3650 C.ar      1 UNK         0.0000 
     37 O37        -0.0534    0.0000   -2.0793 O.co2     1 UNK         0.0000 
     38 C38        -1.7761    0.0180   -3.7123 C.ar      1 UNK         0.0000 
     39 C39        -3.1096    0.0272   -4.0846 C.ar      1 UNK         0.0000 
     40 C40        -4.1096    0.0273   -3.1212 C.ar      1 UNK         0.0000 
     41 H41        -1.0166    0.0181   -4.4843 H         1 UNK         0.0000 
     42 H42        -3.3727    0.0344   -5.1344 H         1 UNK         0.0000 
     43 H43        -5.1338    0.0347   -3.4723 H         1 UNK         0.0000 
     44 H44         2.0287    6.1916   -0.0004 H         1 UNK         0.0000 
     45 H45        -0.1270   -6.1339    2.1361 H         1 UNK         0.0000 
     46 H46        -3.9286    0.0040    0.7622 H         1 UNK         0.0000 
@<TRIPOS>BOND
     1    1    7 nc   
     2    1    9 nc   
     3    1   21 nc   
     4    1   23 nc   
     5    1   35 nc   
     6    1   37 nc   
     7    2    3 2    
     8    3    4 1    
     9    3    5 1    
    10    4   44 1    
    11    5    6 ar   
    12    5   12 ar   
    13    6    7 1    
    14    6    8 ar   
    15    8   10 ar   
    16    8    9 1    
    17   10   13 1    
    18   10   11 ar   
    19   11   12 ar   
    20   11   14 1    
    21   12   15 1    
    22   16   17 2    
    23   17   18 1    
    24   17   19 1    
    25   18   45 1    
    26   19   26 ar   
    27   19   20 ar   
    28   20   22 ar   
    29   20   21 1    
    30   22   24 ar   
    31   22   23 1    
    32   24   25 ar   
    33   24   27 1    
    34   25   28 1    
    35   25   26 ar   
    36   26   29 1    
    37   30   31 1    
    38   30   46 1    
    39   31   32 2    
    40   31   33 1    
    41   33   34 ar   
    42   33   40 ar   
    43   34   35 1    
    44   34   36 ar   
    45   36   37 1    
    46   36   38 ar   
    47   38   39 ar   
    48   38   41 1    
    49   39   40 ar   
    50   39   42 1    
    51   40   43 1    
@<TRIPOS>SUBSTRUCTURE
     1 UNK         1 GROUP             0       ****    0 ROOT    
