@<TRIPOS>MOLECULE
209_c1
111   118    1
SMALL
USER_CHARGES


@<TRIPOS>ATOM
      1 C1         -2.3498   -1.5370   -0.8368 C.ar      1 UNK         0.0000 
      2 C2         -1.8671   -0.2524   -0.5669 C.ar      1 UNK         0.0000 
      3 C3         -0.5100   -0.0444   -0.3243 C.ar      1 UNK         0.0000 
      4 O4         -0.0408    1.2174   -0.0435 O.3       1 UNK         0.0000 
      5 C5          0.3705   -1.1323   -0.3614 C.ar      1 UNK         0.0000 
      6 O6          1.7051   -0.9385   -0.1264 O.3       1 UNK         0.0000 
      7 C7         -0.1113   -2.4086   -0.6302 C.ar      1 UNK         0.0000 
      8 C8         -1.4762   -2.6399   -0.8691 C.ar      1 UNK         0.0000 
      9 C9         -1.9424   -4.0587   -1.1211 C.2       1 UNK         0.0000 
     10 O10        -1.1523   -4.9952   -1.0205 O.2       1 UNK         0.0000 
     11 N11        -3.2311   -4.2876   -1.4437 N.am      1 UNK         0.0000 
     12 C12        -3.7189   -5.6631   -1.5917 C.3       1 UNK         0.0000 
     13 C13        -5.1899   -5.8482   -2.0094 C.3       1 UNK         0.0000 
     14 C14        -5.5734   -7.3418   -1.8716 C.3       1 UNK         0.0000 
     15 C15        -6.9758   -7.7235   -2.3782 C.3       1 UNK         0.0000 
     16 N16        -7.2419   -9.1598   -2.1185 N.3       1 UNK         0.0000 
     17 C17        -7.8073   -9.2370   -0.7395 C.3       1 UNK         0.0000 
     18 C18        -9.3022   -8.8999   -0.7767 C.3       1 UNK         0.0000 
     19 C19       -10.1570   -8.2406    0.3307 C.3       1 UNK         0.0000 
     20 N20       -11.5441   -7.9971   -0.1525 N.am      1 UNK         0.0000 
     21 C21       -11.8305   -7.1065   -1.1376 C.2       1 UNK         0.0000 
     22 O22       -12.1705   -5.9564   -0.8746 O.2       1 UNK         0.0000 
     23 C23       -11.4856   -7.5356   -2.5579 C.ar      1 UNK         0.0000 
     24 C24       -11.3938   -8.9003   -2.8657 C.ar      1 UNK         0.0000 
     25 C25       -10.3121   -9.3364   -3.6308 C.ar      1 UNK         0.0000 
     26 O26        -9.9181  -10.5150   -3.4027 O.co2     1 UNK         0.0000 
     27 C27        -9.5378   -8.4250   -4.3745 C.ar      1 UNK         0.0000 
     28 O28        -8.4434   -8.7676   -4.9517 O.co2     1 UNK         0.0000 
     29 C29        -9.9135   -7.0751   -4.3545 C.ar      1 UNK         0.0000 
     30 C30       -10.8579   -6.6203   -3.4230 C.ar      1 UNK         0.0000 
     31 H31        -3.4074   -1.6580   -1.0067 H         1 UNK         0.0000 
     32 H32        -2.5535    0.5815   -0.5398 H         1 UNK         0.0000 
     33 H33        -0.7292    1.8861   -0.0314 H         1 UNK         0.0000 
     34 H34         1.8493   -0.0035    0.0557 H         1 UNK         0.0000 
     35 H35         0.5983   -3.2260   -0.6414 H         1 UNK         0.0000 
     36 H36        -3.8654   -3.5164   -1.5661 H         1 UNK         0.0000 
     37 H37        -3.5696   -6.1699   -0.6340 H         1 UNK         0.0000 
     38 H38        -3.0885   -6.2139   -2.2963 H         1 UNK         0.0000 
     39 H39        -5.3269   -5.5170   -3.0411 H         1 UNK         0.0000 
     40 H40        -5.8464   -5.2377   -1.3870 H         1 UNK         0.0000 
     41 H41        -4.8389   -7.9362   -2.4065 H         1 UNK         0.0000 
     42 H42        -5.4733   -7.6165   -0.8218 H         1 UNK         0.0000 
     43 H43        -7.0316   -7.4975   -3.4406 H         1 UNK         0.0000 
     44 H44        -7.7158   -7.0443   -1.9416 H         1 UNK         0.0000 
     45 H45        -7.2856   -8.5834   -0.0338 H         1 UNK         0.0000 
     46 H46        -7.6966  -10.2541   -0.3542 H         1 UNK         0.0000 
     47 H47        -9.8115   -9.8219   -1.0434 H         1 UNK         0.0000 
     48 H48        -9.3704   -8.1805   -1.5704 H         1 UNK         0.0000 
     49 H49        -9.6957   -7.3146    0.6856 H         1 UNK         0.0000 
     50 H50       -10.1855   -8.9021    1.1982 H         1 UNK         0.0000 
     51 H51       -11.9510   -8.8909   -0.3861 H         1 UNK         0.0000 
     52 H52       -11.8858   -9.6354   -2.2405 H         1 UNK         0.0000 
     53 H53        -9.3699   -6.3638   -4.9522 H         1 UNK         0.0000 
     54 H54       -10.9488   -5.5558   -3.2510 H         1 UNK         0.0000 
     55 O55        -7.4526  -12.0290   -2.7825 O.co2     1 UNK         0.0000 
     56 H56        -1.3911   -7.9716   -3.4634 H         1 UNK         0.0000 
     57 C57        -7.4181  -13.0275   -3.5678 C.ar      1 UNK         0.0000 
     58 H58        -6.2301  -14.1177   -2.1762 H         1 UNK         0.0000 
     59 O59         1.2194   -8.0875   -3.6099 O.2       1 UNK         0.0000 
     60 C60        -6.6882  -14.1336   -3.1553 C.ar      1 UNK         0.0000 
     61 H61        -3.4867   -9.2280   -3.5571 H         1 UNK         0.0000 
     62 H62        -3.0005  -15.5460   -4.3629 H         1 UNK         0.0000 
     63 H63        -4.6173  -14.0176   -6.1466 H         1 UNK         0.0000 
     64 H64        -4.7011  -12.7248   -3.6325 H         1 UNK         0.0000 
     65 C65         3.3433   -6.4580   -4.4936 C.ar      1 UNK         0.0000 
     66 O66         5.6270   -5.7545   -4.3702 O.3       1 UNK         0.0000 
     67 C67         0.9925   -7.3420   -4.5633 C.2       1 UNK         0.0000 
     68 H68        -5.8863  -12.1016   -5.9330 H         1 UNK         0.0000 
     69 C69        -1.3160   -8.1094   -4.5472 C.3       1 UNK         0.0000 
     70 N70        -3.8810  -15.0751   -4.4915 N.am      1 UNK         0.0000 
     71 H71         3.4688   -6.9393   -3.5329 H         1 UNK         0.0000 
     72 O72        -8.3397  -11.8973   -5.4021 O.co2     1 UNK         0.0000 
     73 H73        -3.1740   -7.0218   -4.8670 H         1 UNK         0.0000 
     74 C74        -3.9057  -13.8555   -5.3305 C.3       1 UNK         0.0000 
     75 H75        -5.5713   -8.3340   -4.6258 H         1 UNK         0.0000 
     76 C76        -3.5707   -9.1603   -4.6427 C.3       1 UNK         0.0000 
     77 C77        -7.8999  -12.9718   -4.8947 C.ar      1 UNK         0.0000 
     78 C78         4.4309   -5.7836   -5.0364 C.ar      1 UNK         0.0000 
     79 C79         2.1165   -6.5319   -5.1743 C.ar      1 UNK         0.0000 
     80 N80        -0.2486   -7.2657   -5.0898 N.am      1 UNK         0.0000 
     81 C81        -4.2287  -12.5245   -4.5890 C.3       1 UNK         0.0000 
     82 H82         6.2497   -5.2382   -4.8939 H         1 UNK         0.0000 
     83 C83        -2.7260   -7.9756   -5.1548 C.3       1 UNK         0.0000 
     84 C84        -5.1055  -11.5465   -5.4284 C.3       1 UNK         0.0000 
     85 N85        -5.7035  -10.4562   -4.6071 N.3       1 UNK         0.0000 
     86 C86        -5.0633   -9.1974   -5.0436 C.3       1 UNK         0.0000 
     87 C87        -6.2735  -15.0665   -4.1069 C.ar      1 UNK         0.0000 
     88 C88         4.3108   -5.1468   -6.2765 C.ar      1 UNK         0.0000 
     89 C89        -4.9299  -15.7094   -3.9230 C.2       1 UNK         0.0000 
     90 C90         2.0089   -5.8868   -6.4202 C.ar      1 UNK         0.0000 
     91 C91         3.0986   -5.1997   -6.9628 C.ar      1 UNK         0.0000 
     92 O92         5.3851   -4.4824   -6.8176 O.3       1 UNK         0.0000 
     93 H93        -0.4447   -6.6290   -5.8424 H         1 UNK         0.0000 
     94 C94        -7.7232  -14.0585   -5.7503 C.ar      1 UNK         0.0000 
     95 H95        -0.9877   -9.1472   -4.6722 H         1 UNK         0.0000 
     96 C96        -6.8862  -15.1034   -5.3651 C.ar      1 UNK         0.0000 
     97 H97         1.0956   -5.9227   -6.9915 H         1 UNK         0.0000 
     98 H98        -3.0668  -10.0439   -5.0288 H         1 UNK         0.0000 
     99 H99        -2.9306  -13.7676   -5.8162 H         1 UNK         0.0000 
    100 H100        5.2031   -4.1098   -7.6832 H         1 UNK         0.0000 
    101 H101       -3.2859  -12.0604   -4.3072 H         1 UNK         0.0000 
    102 H102        3.0010   -4.7173   -7.9241 H         1 UNK         0.0000 
    103 O103       -4.7624  -16.7229   -3.2529 O.2       1 UNK         0.0000 
    104 H104       -4.5193  -11.1886   -6.2799 H         1 UNK         0.0000 
    105 H105       -2.6801   -7.9983   -6.2462 H         1 UNK         0.0000 
    106 H106       -5.1722   -9.0745   -6.1247 H         1 UNK         0.0000 
    107 H107       -8.0988  -14.0182   -6.7626 H         1 UNK         0.0000 
    108 H108       -6.5956  -15.8388   -6.0980 H         1 UNK         0.0000 
    109 Fe109      -8.0169  -10.5062   -3.9640 Fe        1 UNK         0.0000 
    110 H110       -5.2859  -10.7151   -3.7072 H         1 UNK         0.0000 
    111 H111       -6.3135   -9.5535   -1.9415 H         1 UNK         0.0000 
@<TRIPOS>BOND
     1    1    2 ar   
     2    1    8 ar   
     3    1   31 1    
     4    2    3 ar   
     5    2   32 1    
     6    3    4 1    
     7    3    5 ar   
     8    4   33 1    
     9    5    6 1    
    10    5    7 ar   
    11    6   34 1    
    12    7    8 ar   
    13    7   35 1    
    14    8    9 1    
    15    9   10 2    
    16    9   11 am   BACKBONE|DICT|INTERRES
    17   11   12 1    
    18   11   36 1    
    19   12   13 1    
    20   12   37 1    
    21   12   38 1    
    22   13   14 1    
    23   13   39 1    
    24   13   40 1    
    25   14   15 1    
    26   14   41 1    
    27   14   42 1    
    28   15   16 1    
    29   15   43 1    
    30   15   44 1    
    31   16   17 1    
    32   16  109 nc   
    33   16  111 1    
    34   17   18 1    
    35   17   45 1    
    36   17   46 1    
    37   18   19 1    
    38   18   47 1    
    39   18   48 1    
    40   19   20 1    
    41   19   49 1    
    42   19   50 1    
    43   20   21 am   BACKBONE|DICT|INTERRES
    44   20   51 1    
    45   21   22 2    
    46   21   23 1    
    47   23   24 ar   
    48   23   30 ar   
    49   24   25 ar   
    50   24   52 1    
    51   25   26 1    
    52   25   27 ar   
    53   26  109 nc   
    54   27   28 1    
    55   27   29 ar   
    56   28  109 nc   
    57   29   30 ar   
    58   29   53 1    
    59   30   54 1    
    60   55   57 1    
    61   55  109 nc   
    62   56   69 1    
    63   57   77 ar   
    64   57   60 ar   
    65   58   60 1    
    66   59   67 2    
    67   60   87 ar   
    68   61   76 1    
    69   62   70 1    
    70   63   74 1    
    71   64   81 1    
    72   65   79 ar   
    73   65   71 1    
    74   65   78 ar   
    75   66   82 1    
    76   66   78 1    
    77   67   80 am   BACKBONE|DICT|INTERRES
    78   67   79 1    
    79   68   84 1    
    80   69   83 1    
    81   69   95 1    
    82   69   80 1    
    83   70   89 am   BACKBONE|DICT|INTERRES
    84   70   74 1    
    85   72   77 1    
    86   72  109 nc   
    87   73   83 1    
    88   74   99 1    
    89   74   81 1    
    90   75   86 1    
    91   76   86 1    
    92   76   98 1    
    93   76   83 1    
    94   77   94 ar   
    95   78   88 ar   
    96   79   90 ar   
    97   80   93 1    
    98   81  101 1    
    99   81   84 1    
   100   83  105 1    
   101   84  104 1    
   102   84   85 1    
   103   85   86 1    
   104   85  109 nc   
   105   85  110 1    
   106   86  106 1    
   107   87   96 ar   
   108   87   89 1    
   109   88   92 1    
   110   88   91 ar   
   111   89  103 2    
   112   90   91 ar   
   113   90   97 1    
   114   91  102 1    
   115   92  100 1    
   116   94   96 ar   
   117   94  107 1    
   118   96  108 1    
@<TRIPOS>SUBSTRUCTURE
     1 UNK         1 GROUP             0       ****    0 ROOT    
