@<TRIPOS>MOLECULE
112_c1
49   56    1
SMALL
USER_CHARGES


@<TRIPOS>ATOM
      1 Fe1        -0.0002   -0.0698    0.0694 Fe        1 UNK         0.0000 
      2 O2          0.7603    2.1460   -0.1886 O.co2     1 UNK         0.0000 
      3 C3          1.9826    2.4104   -0.3241 C.2       1 UNK         0.0000 
      4 O4          2.4535    3.5515   -0.5298 O.co2     1 UNK         0.0000 
      5 C5          2.9767    1.1848   -0.1984 C.3       1 UNK         0.0000 
      6 C6          3.7440    1.3868    1.1443 C.3       1 UNK         0.0000 
      7 N7          2.2910   -0.1334   -0.1498 N.pl3     1 UNK         0.0000 
      8 C8          2.8315   -1.0897   -0.8300 C.2       1 UNK         0.0000 
      9 S9          4.2667   -0.5318   -1.7673 S.3       1 UNK         0.0000 
     10 C10         3.8810    1.1920   -1.4442 C.3       1 UNK         0.0000 
     11 C11         2.3793   -2.5444   -0.9166 C.ar      1 UNK         0.0000 
     12 N12         3.3076   -3.4207   -1.4452 N.ar      1 UNK         0.0000 
     13 C13         2.9997   -4.7231   -1.6163 C.ar      1 UNK         0.0000 
     14 C14         1.7643   -5.2625   -1.2688 C.ar      1 UNK         0.0000 
     15 C15         0.8053   -4.3917   -0.7264 C.ar      1 UNK         0.0000 
     16 C16         1.0986   -3.0407   -0.5423 C.ar      1 UNK         0.0000 
     17 O17         0.1455   -2.3418   -0.0757 O.co2     1 UNK         0.0000 
     18 H18         4.2325    2.3662    1.1739 H         1 UNK         0.0000 
     19 H19         4.5128    0.6352    1.2919 H         1 UNK         0.0000 
     20 H20         3.0907    1.3544    2.0167 H         1 UNK         0.0000 
     21 H21         4.7676    1.8162   -1.3013 H         1 UNK         0.0000 
     22 H22         3.3797    1.5578   -2.3484 H         1 UNK         0.0000 
     23 H23         3.8068   -5.2979   -2.0448 H         1 UNK         0.0000 
     24 H24         1.5051   -6.3069   -1.3798 H         1 UNK         0.0000 
     25 H25        -0.1763   -4.7502   -0.4388 H         1 UNK         0.0000 
     26 O26        -0.7575    0.1888   -2.1453 O.co2     1 UNK         0.0000 
     27 C27        -1.9870    0.3253   -2.4143 C.2       1 UNK         0.0000 
     28 O28        -2.4528    0.5298   -3.5492 O.co2     1 UNK         0.0000 
     29 C29        -2.9760    0.1983   -1.1842 C.3       1 UNK         0.0000 
     30 C30        -3.7441   -1.1442   -1.3870 C.3       1 UNK         0.0000 
     31 N31        -2.2913    0.1494    0.1334 N.pl3     1 UNK         0.0000 
     32 C32        -2.8313    0.8294    1.0897 C.2       1 UNK         0.0000 
     33 S33        -4.2664    1.7672    0.5322 S.3       1 UNK         0.0000 
     34 C34        -3.8811    1.4444   -1.1917 C.3       1 UNK         0.0000 
     35 C35        -2.3794    0.9159    2.5446 C.ar      1 UNK         0.0000 
     36 N36        -3.3072    1.4455    3.4209 N.ar      1 UNK         0.0000 
     37 C37        -2.9990    1.6168    4.7234 C.ar      1 UNK         0.0000 
     38 C38        -1.7634    1.2692    5.2625 C.ar      1 UNK         0.0000 
     39 C39        -0.8047    0.7269    4.3914 C.ar      1 UNK         0.0000 
     40 C40        -1.0983    0.5419    3.0407 C.ar      1 UNK         0.0000 
     41 O41        -0.1457    0.0746    2.3419 O.co2     1 UNK         0.0000 
     42 H42        -4.2327   -1.1737   -2.3662 H         1 UNK         0.0000 
     43 H43        -4.5127   -1.2917   -0.6352 H         1 UNK         0.0000 
     44 H44        -3.0907   -2.0165   -1.3545 H         1 UNK         0.0000 
     45 H45        -4.7676    1.3016   -1.8159 H         1 UNK         0.0000 
     46 H46        -3.3796    2.3485   -1.5572 H         1 UNK         0.0000 
     47 H47        -3.8060    2.0452    5.2982 H         1 UNK         0.0000 
     48 H48        -1.5037    1.3811    6.3067 H         1 UNK         0.0000 
     49 H49         0.1769    0.4389    4.7501 H         1 UNK         0.0000 
@<TRIPOS>BOND
     1    1    2 nc   
     2    1    7 nc   
     3    1   17 nc   
     4    1   26 nc   
     5    1   31 nc   
     6    1   41 nc   
     7    2    3 1    
     8    3    5 1    
     9    3    4 2    
    10    5    7 1    
    11    5    6 1    
    12    5   10 1    
    13    6   19 1    
    14    6   20 1    
    15    6   18 1    
    16    7    8 2    
    17    8    9 1    
    18    8   11 1    
    19    9   10 1    
    20   10   21 1    
    21   10   22 1    
    22   11   16 ar   
    23   11   12 ar   
    24   12   13 ar   
    25   13   14 ar   
    26   13   23 1    
    27   14   15 ar   
    28   14   24 1    
    29   15   16 ar   
    30   15   25 1    
    31   16   17 1    
    32   26   27 1    
    33   27   29 1    
    34   27   28 2    
    35   29   30 1    
    36   29   34 1    
    37   29   31 1    
    38   30   44 1    
    39   30   43 1    
    40   30   42 1    
    41   31   32 2    
    42   32   35 1    
    43   32   33 1    
    44   33   34 1    
    45   34   45 1    
    46   34   46 1    
    47   35   40 ar   
    48   35   36 ar   
    49   36   37 ar   
    50   37   38 ar   
    51   37   47 1    
    52   38   48 1    
    53   38   39 ar   
    54   39   49 1    
    55   39   40 ar   
    56   40   41 1    
@<TRIPOS>SUBSTRUCTURE
     1 UNK         1 GROUP             0       ****    0 ROOT    
