@<TRIPOS>MOLECULE
247_c1
98   103    1
SMALL
USER_CHARGES


@<TRIPOS>ATOM
      1 Fe1         1.9850    5.2981   -0.3408 Fe        1 UNK         0.0000 
      2 C2          1.5127    6.2697   -4.3362 C.3       1 UNK         0.0000 
      3 C3          2.0491    5.5381   -3.1150 C.2       1 UNK         0.0000 
      4 O4          2.7074    6.1570   -2.2580 O.co2     1 UNK         0.0000 
      5 N5          1.7388    4.2527   -2.8339 N.am      1 UNK         0.0000 
      6 O6          2.3412    3.6164   -1.8323 O.co2     1 UNK         0.0000 
      7 C7          0.5061    3.5908   -3.3522 C.3       1 UNK         0.0000 
      8 C8         -0.0651    2.3712   -2.5548 C.3       1 UNK         0.0000 
      9 C9         -1.4737    1.9345   -3.0390 C.3       1 UNK         0.0000 
     10 C10        -2.0112    0.5513   -2.5779 C.3       1 UNK         0.0000 
     11 H11        -2.7114    0.3117   -3.3828 H         1 UNK         0.0000 
     12 C12        -1.0344   -0.6256   -2.7431 C.2       1 UNK         0.0000 
     13 O13        -0.4175   -0.7252   -3.8014 O.2       1 UNK         0.0000 
     14 N14        -0.9524   -1.5321   -1.7676 N.am      1 UNK         0.0000 
     15 C15        -0.1690   -2.7611   -1.8884 C.3       1 UNK         0.0000 
     16 C16        -1.0204   -3.9166   -1.3556 C.2       1 UNK         0.0000 
     17 O17        -2.1226   -3.7007   -0.8535 O.2       1 UNK         0.0000 
     18 N18        -0.5020   -5.1489   -1.4690 N.am      1 UNK         0.0000 
     19 C19        -1.2231   -6.3655   -1.0843 C.3       1 UNK         0.0000 
     20 C20        -1.3208   -6.4977    0.4413 C.2       1 UNK         0.0000 
     21 O21        -2.3904   -6.8023    0.9572 O.2       1 UNK         0.0000 
     22 N22        -0.2109   -6.2672    1.1601 N.am      1 UNK         0.0000 
     23 C23        -0.2054   -6.3068    2.6257 C.3       1 UNK         0.0000 
     24 C24        -0.6327   -4.9543    3.2131 C.2       1 UNK         0.0000 
     25 O25        -1.2129   -4.9170    4.2945 O.2       1 UNK         0.0000 
     26 N26        -0.3510   -3.8473    2.5193 N.am      1 UNK         0.0000 
     27 C27        -0.7229   -2.5172    2.9699 C.3       1 UNK         0.0000 
     28 C28        -0.1310   -1.5048    1.9804 C.2       1 UNK         0.0000 
     29 O29         0.5255   -1.9026    1.0201 O.2       1 UNK         0.0000 
     30 N30        -0.3186   -0.1933    2.1636 N.am      1 UNK         0.0000 
     31 C31        -0.8729    0.4602    3.3518 C.3       1 UNK         0.0000 
     32 H32        -1.1456   -0.2972    4.0865 H         1 UNK         0.0000 
     33 C33         0.1724    1.3566    4.0663 C.3       1 UNK         0.0000 
     34 C34         0.9632    2.2008    3.0588 C.3       1 UNK         0.0000 
     35 C35         1.6719    3.4933    3.5499 C.3       1 UNK         0.0000 
     36 N36         2.2696    4.2983    2.4518 N.am      1 UNK         0.0000 
     37 O37         2.2814    3.7200    1.2486 O.co2     1 UNK         0.0000 
     38 C38         2.7025    5.5740    2.5745 C.2       1 UNK         0.0000 
     39 O39         3.0080    6.1470    1.5176 O.co2     1 UNK         0.0000 
     40 C40         2.7355    6.3048    3.9113 C.3       1 UNK         0.0000 
     41 C41        -2.2134    1.2019    3.1488 C.2       1 UNK         0.0000 
     42 O42        -2.9123    1.3219    4.1490 O.2       1 UNK         0.0000 
     43 N43        -2.6790    1.6962    1.9918 N.am      1 UNK         0.0000 
     44 C44        -2.2247    1.8744    0.6032 C.3       1 UNK         0.0000 
     45 H45        -1.1822    1.5866    0.4723 H         1 UNK         0.0000 
     46 C46        -3.1911    0.9851   -0.2395 C.2       1 UNK         0.0000 
     47 O47        -4.2956    0.7513    0.2508 O.2       1 UNK         0.0000 
     48 N48        -2.9675    0.4628   -1.4585 N.am      1 UNK         0.0000 
     49 C49        -2.4527    3.3782    0.2446 C.3       1 UNK         0.0000 
     50 C50        -2.0255    4.4126    1.3432 C.3       1 UNK         0.0000 
     51 C51        -1.8125    5.8845    0.8643 C.3       1 UNK         0.0000 
     52 N52        -0.5027    6.1452    0.2105 N.am      1 UNK         0.0000 
     53 O53        -0.0178    5.1119   -0.4655 O.co2     1 UNK         0.0000 
     54 C54         0.2551    7.2620    0.3443 C.2       1 UNK         0.0000 
     55 O55         1.3963    7.1677   -0.1334 O.co2     1 UNK         0.0000 
     56 C56        -0.1717    8.5165    1.1061 C.3       1 UNK         0.0000 
     57 H57         0.9592    7.1579   -4.0283 H         1 UNK         0.0000 
     58 H58         0.8708    5.6511   -4.9648 H         1 UNK         0.0000 
     59 H59         2.3647    6.5871   -4.9318 H         1 UNK         0.0000 
     60 H60         0.6855    3.2802   -4.3820 H         1 UNK         0.0000 
     61 H61        -0.3056    4.3213   -3.4172 H         1 UNK         0.0000 
     62 H62        -0.0978    2.5856   -1.4885 H         1 UNK         0.0000 
     63 H63         0.6426    1.5506   -2.6827 H         1 UNK         0.0000 
     64 H64        -1.4092    1.8670   -4.1281 H         1 UNK         0.0000 
     65 H65        -2.2244    2.7034   -2.8550 H         1 UNK         0.0000 
     66 H66        -1.5489   -1.4749   -0.9539 H         1 UNK         0.0000 
     67 H67         0.7546   -2.6784   -1.3185 H         1 UNK         0.0000 
     68 H68         0.1113   -2.9755   -2.9212 H         1 UNK         0.0000 
     69 H69         0.4084   -5.2526   -1.8868 H         1 UNK         0.0000 
     70 H70        -2.2222   -6.3716   -1.5254 H         1 UNK         0.0000 
     71 H71        -0.6969   -7.2363   -1.4741 H         1 UNK         0.0000 
     72 H72         0.6531   -6.0552    0.6916 H         1 UNK         0.0000 
     73 H73        -0.8614   -7.0929    3.0063 H         1 UNK         0.0000 
     74 H74         0.7982   -6.5364    2.9818 H         1 UNK         0.0000 
     75 H75         0.1402   -3.8817    1.6378 H         1 UNK         0.0000 
     76 H76        -0.3340   -2.3553    3.9763 H         1 UNK         0.0000 
     77 H77        -1.8090   -2.4219    2.9901 H         1 UNK         0.0000 
     78 H78         0.1095    0.4287    1.4937 H         1 UNK         0.0000 
     79 H79         0.8590    0.7265    4.6362 H         1 UNK         0.0000 
     80 H80        -0.3318    1.9898    4.7997 H         1 UNK         0.0000 
     81 H81         1.7224    1.5581    2.6113 H         1 UNK         0.0000 
     82 H82         0.2940    2.4891    2.2535 H         1 UNK         0.0000 
     83 H83         2.4427    3.2272    4.2788 H         1 UNK         0.0000 
     84 H84         0.9458    4.0772    4.1287 H         1 UNK         0.0000 
     85 H85         3.4452    5.8328    4.5853 H         1 UNK         0.0000 
     86 H86         1.7594    6.3224    4.3964 H         1 UNK         0.0000 
     87 H87         3.0532    7.3345    3.7642 H         1 UNK         0.0000 
     88 H88        -3.6557    1.9447    2.0535 H         1 UNK         0.0000 
     89 H89        -3.7367   -0.1397   -1.7120 H         1 UNK         0.0000 
     90 H90        -1.9701    3.5847   -0.7079 H         1 UNK         0.0000 
     91 H91        -3.5137    3.5466    0.0470 H         1 UNK         0.0000 
     92 H92        -2.7987    4.4054    2.1141 H         1 UNK         0.0000 
     93 H93        -1.1139    4.1012    1.8456 H         1 UNK         0.0000 
     94 H94        -1.9982    6.5414    1.7153 H         1 UNK         0.0000 
     95 H95        -2.6150    6.1389    0.1709 H         1 UNK         0.0000 
     96 H96         0.4191    8.6165    2.0167 H         1 UNK         0.0000 
     97 H97         0.0308    9.3925    0.4972 H         1 UNK         0.0000 
     98 H98        -1.2222    8.5593    1.3803 H         1 UNK         0.0000 
@<TRIPOS>BOND
     1    1    4 nc   
     2    1    6 nc   
     3    1   37 nc   
     4    1   39 nc   
     5    1   53 nc   
     6    1   55 nc   
     7    2   57 1    
     8    2    3 1    
     9    2   58 1    
    10    2   59 1    
    11    3    5 am   BACKBONE|DICT|INTERRES
    12    3    4 2    
    13    5    6 1    
    14    5    7 1    
    15    7   61 1    
    16    7    8 1    
    17    7   60 1    
    18    8   62 1    
    19    8    9 1    
    20    8   63 1    
    21    9   65 1    
    22    9   10 1    
    23    9   64 1    
    24   10   11 1    
    25   10   48 1    
    26   10   12 1    
    27   12   14 am   BACKBONE|DICT|INTERRES
    28   12   13 2    
    29   14   66 1    
    30   14   15 1    
    31   15   16 1    
    32   15   67 1    
    33   15   68 1    
    34   16   17 2    
    35   16   18 am   BACKBONE|DICT|INTERRES
    36   18   19 1    
    37   18   69 1    
    38   19   20 1    
    39   19   70 1    
    40   19   71 1    
    41   20   21 2    
    42   20   22 am   BACKBONE|DICT|INTERRES
    43   22   23 1    
    44   22   72 1    
    45   23   74 1    
    46   23   24 1    
    47   23   73 1    
    48   24   25 2    
    49   24   26 am   BACKBONE|DICT|INTERRES
    50   26   27 1    
    51   26   75 1    
    52   27   76 1    
    53   27   28 1    
    54   27   77 1    
    55   28   30 am   BACKBONE|DICT|INTERRES
    56   28   29 2    
    57   30   31 1    
    58   30   78 1    
    59   31   32 1    
    60   31   33 1    
    61   31   41 1    
    62   33   79 1    
    63   33   80 1    
    64   33   34 1    
    65   34   35 1    
    66   34   81 1    
    67   34   82 1    
    68   35   84 1    
    69   35   83 1    
    70   35   36 1    
    71   36   37 1    
    72   36   38 am   BACKBONE|DICT|INTERRES
    73   38   40 1    
    74   38   39 2    
    75   40   86 1    
    76   40   85 1    
    77   40   87 1    
    78   41   42 2    
    79   41   43 am   BACKBONE|DICT|INTERRES
    80   43   88 1    
    81   43   44 1    
    82   44   45 1    
    83   44   46 1    
    84   44   49 1    
    85   46   47 2    
    86   46   48 am   BACKBONE|DICT|INTERRES
    87   48   89 1    
    88   49   50 1    
    89   49   90 1    
    90   49   91 1    
    91   50   93 1    
    92   50   92 1    
    93   50   51 1    
    94   51   94 1    
    95   51   52 1    
    96   51   95 1    
    97   52   54 am   BACKBONE|DICT|INTERRES
    98   52   53 1    
    99   54   56 1    
   100   54   55 2    
   101   56   98 1    
   102   56   96 1    
   103   56   97 1    
@<TRIPOS>SUBSTRUCTURE
     1 UNK         1 GROUP             0       ****    0 ROOT    
