@<TRIPOS>MOLECULE
158_A_c1
77   84    1
SMALL
USER_CHARGES


@<TRIPOS>ATOM
      1 Fe1         0.7032   -3.2214   -0.8426 Fe        1 UNK         0.0000 
      2 C2          0.5919   -3.8793    4.1899 C.ar      1 UNK         0.0000 
      3 C3          0.9456   -5.1710    3.8417 C.ar      1 UNK         0.0000 
      4 C4          1.4667   -5.4220    2.5822 C.ar      1 UNK         0.0000 
      5 C5          1.6707   -4.3860    1.6675 C.ar      1 UNK         0.0000 
      6 O6          2.1695   -4.7484    0.5454 O.co2     1 UNK         0.0000 
      7 C7          1.2939   -3.0512    2.0076 C.ar      1 UNK         0.0000 
      8 O8          1.4177   -2.1075    1.1458 O.co2     1 UNK         0.0000 
      9 C9          0.7257   -2.7971    3.2954 C.ar      1 UNK         0.0000 
     10 C10         0.2173   -1.4396    3.8007 C.2       1 UNK         0.0000 
     11 O11        -0.3554   -1.3587    4.9007 O.2       1 UNK         0.0000 
     12 N12         0.4117   -0.3187    3.0784 N.am      1 UNK         0.0000 
     13 C13        -0.1108    0.9841    3.5324 C.3       1 UNK         0.0000 
     14 C14         0.3628    2.2549    2.7972 C.3       1 UNK         0.0000 
     15 C15        -0.7968    3.2448    2.4596 C.3       1 UNK         0.0000 
     16 N16        -1.1058    3.3855    1.0223 N.am      1 UNK         0.0000 
     17 C17        -0.1596    3.9222    0.1958 C.2       1 UNK         0.0000 
     18 O18         0.8292    4.5160    0.6479 O.2       1 UNK         0.0000 
     19 C19        -0.2840    3.7820   -1.3577 C.3       1 UNK         0.0000 
     20 H20        -1.2687    3.4009   -1.6026 H         1 UNK         0.0000 
     21 C21        -0.2359    5.2203   -1.9644 C.3       1 UNK         0.0000 
     22 H22        -0.9362    5.8589   -1.4163 H         1 UNK         0.0000 
     23 O23        -0.7309    5.2047   -3.2928 O.3       1 UNK         0.0000 
     24 C24         1.1276    5.9417   -1.9865 C.3       1 UNK         0.0000 
     25 N25         0.6489    2.8199   -1.9966 N.am      1 UNK         0.0000 
     26 C26         0.9356    1.5994   -1.4972 C.2       1 UNK         0.0000 
     27 O27         0.5506    1.2664   -0.3733 O.2       1 UNK         0.0000 
     28 C28         1.7701    0.6354   -2.3298 C.ar      1 UNK         0.0000 
     29 C29         1.4294   -0.7435   -2.3912 C.ar      1 UNK         0.0000 
     30 O30         0.2497   -1.1137   -2.0593 O.co2     1 UNK         0.0000 
     31 C31         2.3983   -1.6809   -2.8300 C.ar      1 UNK         0.0000 
     32 O32         2.2672   -2.9501   -2.7087 O.co2     1 UNK         0.0000 
     33 C33         3.5901   -1.2154   -3.3855 C.ar      1 UNK         0.0000 
     34 C34         3.8459    0.1524   -3.5016 C.ar      1 UNK         0.0000 
     35 C35         2.9537    1.0718   -2.9518 C.ar      1 UNK         0.0000 
     36 C36        -2.4951    3.0698    0.6173 C.3       1 UNK         0.0000 
     37 C37        -2.7658    1.7069   -0.0734 C.3       1 UNK         0.0000 
     38 C38        -2.6141    0.4528    0.8007 C.3       1 UNK         0.0000 
     39 N39        -2.6469   -0.7895    0.0430 N.am      1 UNK         0.0000 
     40 C40        -3.6011   -1.3962   -0.6726 C.2       1 UNK         0.0000 
     41 O41        -4.7573   -0.9456   -0.7546 O.2       1 UNK         0.0000 
     42 C42        -3.1276   -2.6177   -1.4704 C.ar      1 UNK         0.0000 
     43 C43        -1.9561   -3.3640   -1.1362 C.ar      1 UNK         0.0000 
     44 O44        -1.3328   -3.1357   -0.0437 O.co2     1 UNK         0.0000 
     45 C45        -1.4447   -4.3248   -2.0430 C.ar      1 UNK         0.0000 
     46 O46        -0.3251   -4.9249   -1.8853 O.co2     1 UNK         0.0000 
     47 C47        -2.1480   -4.6025   -3.2147 C.ar      1 UNK         0.0000 
     48 C48        -3.3514   -3.9618   -3.4952 C.ar      1 UNK         0.0000 
     49 C49        -3.8300   -2.9743   -2.6364 C.ar      1 UNK         0.0000 
     50 H50         0.1896   -3.7142    5.1778 H         1 UNK         0.0000 
     51 H51         0.8280   -5.9794    4.5450 H         1 UNK         0.0000 
     52 H52         1.7130   -6.4344    2.2953 H         1 UNK         0.0000 
     53 H53         0.7552   -0.5123    2.1319 H         1 UNK         0.0000 
     54 H54         0.2022    1.1027    4.5729 H         1 UNK         0.0000 
     55 H55        -1.1996    0.9207    3.5415 H         1 UNK         0.0000 
     56 H56         0.9539    1.9931    1.9222 H         1 UNK         0.0000 
     57 H57         1.0736    2.7799    3.4369 H         1 UNK         0.0000 
     58 H58        -0.5204    4.2383    2.8182 H         1 UNK         0.0000 
     59 H59        -1.6875    2.9866    3.0320 H         1 UNK         0.0000 
     60 H60        -0.7501    6.1034   -3.6277 H         1 UNK         0.0000 
     61 H61         1.4365    6.2372   -0.9837 H         1 UNK         0.0000 
     62 H62         1.0882    6.8599   -2.5708 H         1 UNK         0.0000 
     63 H63         1.9135    5.3087   -2.3963 H         1 UNK         0.0000 
     64 H64         0.8875    2.9825   -2.9549 H         1 UNK         0.0000 
     65 H65         4.3165   -1.9404   -3.7282 H         1 UNK         0.0000 
     66 H66         4.7551    0.4739   -3.9821 H         1 UNK         0.0000 
     67 H67         3.2034    2.1214   -2.9739 H         1 UNK         0.0000 
     68 H68        -3.1281    3.1178    1.5035 H         1 UNK         0.0000 
     69 H69        -2.8602    3.8644   -0.0348 H         1 UNK         0.0000 
     70 H70        -2.1610    1.5800   -0.9688 H         1 UNK         0.0000 
     71 H71        -3.7971    1.7159   -0.4256 H         1 UNK         0.0000 
     72 H72        -3.3173    0.4394    1.6339 H         1 UNK         0.0000 
     73 H73        -1.6294    0.4861    1.2641 H         1 UNK         0.0000 
     74 H74        -1.8313   -1.4148    0.0773 H         1 UNK         0.0000 
     75 H75        -1.7410   -5.3202   -3.9141 H         1 UNK         0.0000 
     76 H76        -3.8948   -4.2218   -4.3869 H         1 UNK         0.0000 
     77 H77        -4.7433   -2.4564   -2.8868 H         1 UNK         0.0000 
@<TRIPOS>BOND
     1    1    6 nc   
     2    1    8 nc   
     3    1   30 nc   
     4    1   32 nc   
     5    1   44 nc   
     6    1   46 nc   
     7    2   50 1    
     8    2    3 ar   
     9    2    9 ar   
    10    3   51 1    
    11    3    4 ar   
    12    4    5 ar   
    13    4   52 1    
    14    5    7 ar   
    15    5    6 1    
    16    7    9 ar   
    17    7    8 1    
    18    9   10 1    
    19   10   11 2    
    20   10   12 am   BACKBONE|DICT|INTERRES
    21   12   13 1    
    22   12   53 1    
    23   13   55 1    
    24   13   54 1    
    25   13   14 1    
    26   14   57 1    
    27   14   15 1    
    28   14   56 1    
    29   15   58 1    
    30   15   59 1    
    31   15   16 1    
    32   16   17 am   BACKBONE|DICT|INTERRES
    33   16   36 1    
    34   17   18 2    
    35   17   19 1    
    36   19   20 1    
    37   19   21 1    
    38   19   25 1    
    39   21   24 1    
    40   21   22 1    
    41   21   23 1    
    42   23   60 1    
    43   24   61 1    
    44   24   62 1    
    45   24   63 1    
    46   25   26 am   BACKBONE|DICT|INTERRES
    47   25   64 1    
    48   26   27 2    
    49   26   28 1    
    50   28   29 ar   
    51   28   35 ar   
    52   29   30 1    
    53   29   31 ar   
    54   31   32 1    
    55   31   33 ar   
    56   33   34 ar   
    57   33   65 1    
    58   34   35 ar   
    59   34   66 1    
    60   35   67 1    
    61   36   68 1    
    62   36   37 1    
    63   36   69 1    
    64   37   38 1    
    65   37   70 1    
    66   37   71 1    
    67   38   73 1    
    68   38   72 1    
    69   38   39 1    
    70   39   74 1    
    71   39   40 am   BACKBONE|DICT|INTERRES
    72   40   41 2    
    73   40   42 1    
    74   42   43 ar   
    75   42   49 ar   
    76   43   44 1    
    77   43   45 ar   
    78   45   46 1    
    79   45   47 ar   
    80   47   48 ar   
    81   47   75 1    
    82   48   49 ar   
    83   48   76 1    
    84   49   77 1    
@<TRIPOS>SUBSTRUCTURE
     1 UNK         1 GROUP             0       ****    0 ROOT    
