@<TRIPOS>MOLECULE
009_c2
46   51    1
SMALL
USER_CHARGES


@<TRIPOS>ATOM
      1 Fe1         0.0000    0.0000    0.0000 Fe        1 UNK         0.0000 
      2 O2          0.0000    2.0800    0.0000 O.co2     1 UNK         0.0000 
      3 C3          1.1462    2.7748   -0.0171 C.ar      1 UNK         0.0000 
      4 C4          2.1206    2.3711    0.8506 C.ar      1 UNK         0.0000 
      5 C5          1.4684    3.7650   -0.9754 C.ar      1 UNK         0.0000 
      6 C6          2.8467    3.9385   -1.2880 C.ar      1 UNK         0.0000 
      7 O7          3.2107    4.8181   -2.2419 O.3       1 UNK         0.0000 
      8 C8          3.7696    2.9727   -0.7801 C.ar      1 UNK         0.0000 
      9 C9          3.2404    2.0273    0.1313 C.ar      1 UNK         0.0000 
     10 C10         3.2510    0.6061   -0.2251 C.2       1 UNK         0.0000 
     11 O11         2.0791   -0.0596    0.0000 O.co2     1 UNK         0.0000 
     12 O12         4.1206    0.1168   -0.9286 O.co2     1 UNK         0.0000 
     13 H13         4.1278    4.9020   -2.5383 H         1 UNK         0.0000 
     14 O14         0.0000   -2.0800    0.0000 O.co2     1 UNK         0.0000 
     15 C15        -0.0478   -2.7863    1.1385 C.ar      1 UNK         0.0000 
     16 C16         0.8296   -2.4251    2.1233 C.ar      1 UNK         0.0000 
     17 C17        -1.0434   -3.7432    1.4444 C.ar      1 UNK         0.0000 
     18 C18        -1.3656   -3.9258    2.8191 C.ar      1 UNK         0.0000 
     19 O19        -2.3520   -4.7760    3.1675 O.3       1 UNK         0.0000 
     20 C20        -0.8237   -2.9969    3.7584 C.ar      1 UNK         0.0000 
     21 C21         0.1177   -2.0718    3.2470 C.ar      1 UNK         0.0000 
     22 C22        -0.2259   -0.6470    3.2535 C.2       1 UNK         0.0000 
     23 O23         0.0000    0.0148    2.0799 O.co2     1 UNK         0.0000 
     24 O24        -0.9213   -0.1479    4.1251 O.co2     1 UNK         0.0000 
     25 H25        -2.6533   -4.8628    4.0831 H         1 UNK         0.0000 
     26 O26        -2.0800    0.0000    0.0000 O.co2     1 UNK         0.0000 
     27 C27        -2.7921    0.0506   -1.1364 C.ar      1 UNK         0.0000 
     28 C28        -2.3960    0.9664   -2.0723 C.ar      1 UNK         0.0000 
     29 C29        -3.7976   -0.8769   -1.4962 C.ar      1 UNK         0.0000 
     30 C30        -4.0015   -1.1038   -2.8870 C.ar      1 UNK         0.0000 
     31 O31        -4.9022   -2.0222   -3.2908 O.3       1 UNK         0.0000 
     32 C32        -3.0503   -0.5523   -3.7996 C.ar      1 UNK         0.0000 
     33 C33        -2.0770    0.3091   -3.2359 C.ar      1 UNK         0.0000 
     34 C34        -0.6719   -0.1138   -3.2647 C.2       1 UNK         0.0000 
     35 O35         0.0000    0.0000   -2.0800 O.co2     1 UNK         0.0000 
     36 O36        -0.2093   -0.7752   -4.1807 O.co2     1 UNK         0.0000 
     37 H37        -5.0080   -2.2590   -4.2231 H         1 UNK         0.0000 
     38 H38        -4.3706   -1.3768   -0.7292 H         1 UNK         0.0000 
     39 H39        -3.1023   -0.8006   -4.8494 H         1 UNK         0.0000 
     40 H40        -2.3759    2.0174   -1.8247 H         1 UNK         0.0000 
     41 H41         1.8928   -2.4517    1.9356 H         1 UNK         0.0000 
     42 H42        -1.0923   -2.9717    4.8042 H         1 UNK         0.0000 
     43 H43        -1.5221   -4.2971    0.6504 H         1 UNK         0.0000 
     44 H44         1.9284    2.3644    1.9133 H         1 UNK         0.0000 
     45 H45         4.8142    2.9348   -1.0517 H         1 UNK         0.0000 
     46 H46         0.6837    4.3487   -1.4336 H         1 UNK         0.0000 
@<TRIPOS>BOND
     1    1    2 nc   
     2    1   11 nc   
     3    1   14 nc   
     4    1   23 nc   
     5    1   26 nc   
     6    1   35 nc   
     7    2    3 1    
     8    3    4 ar   
     9    3    5 ar   
    10    4    9 ar   
    11    4   44 1    
    12    5    6 ar   
    13    5   46 1    
    14    6    7 1    
    15    6    8 ar   
    16    7   13 1    
    17    8    9 ar   
    18    8   45 1    
    19    9   10 1    
    20   10   11 1    
    21   10   12 2    
    22   14   15 1    
    23   15   17 ar   
    24   15   16 ar   
    25   16   21 ar   
    26   16   41 1    
    27   17   18 ar   
    28   17   43 1    
    29   18   19 1    
    30   18   20 ar   
    31   19   25 1    
    32   20   21 ar   
    33   20   42 1    
    34   21   22 1    
    35   22   24 2    
    36   22   23 1    
    37   26   27 1    
    38   27   28 ar   
    39   27   29 ar   
    40   28   33 ar   
    41   28   40 1    
    42   29   30 ar   
    43   29   38 1    
    44   30   31 1    
    45   30   32 ar   
    46   31   37 1    
    47   32   33 ar   
    48   32   39 1    
    49   33   34 1    
    50   34   35 1    
    51   34   36 2    
@<TRIPOS>SUBSTRUCTURE
     1 UNK         1 GROUP             0       ****    0 ROOT    
