@<TRIPOS>MOLECULE
103_c1
118   123    1
SMALL
USER_CHARGES


@<TRIPOS>ATOM
      1 Fe1        -0.0606   -2.5192   -1.3377 Fe        1 UNK         0.0000 
      2 O2         -2.5410    1.2864    0.6055 O.2       1 UNK         0.0000 
      3 C3         -2.3101    1.4867    1.7939 C.2       1 UNK         0.0000 
      4 C4         -2.1414    0.3285    2.7929 C.3       1 UNK         0.0000 
      5 C5         -2.2867   -1.1052    2.2282 C.3       1 UNK         0.0000 
      6 C6         -1.2205   -1.4869    1.1998 C.2       1 UNK         0.0000 
      7 O7         -1.4624   -1.4679   -0.0031 O.co2     1 UNK         0.0000 
      8 N8          0.0148   -1.9377    1.5070 N.am      1 UNK         0.0000 
      9 O9          0.8060   -2.2842    0.5004 O.co2     1 UNK         0.0000 
     10 C10         0.4930   -2.3234    2.8393 C.3       1 UNK         0.0000 
     11 C11         0.3849   -3.8509    3.0662 C.3       1 UNK         0.0000 
     12 C12         1.5013   -4.4253    3.9631 C.3       1 UNK         0.0000 
     13 C13         1.2842   -5.8947    4.4055 C.3       1 UNK         0.0000 
     14 C14         0.8663   -6.9071    3.3180 C.3       1 UNK         0.0000 
     15 N15         1.6831   -6.8425    2.0976 N.am      1 UNK         0.0000 
     16 C16         1.1962   -7.0403    0.8606 C.2       1 UNK         0.0000 
     17 O17         0.0238   -7.3472    0.6587 O.2       1 UNK         0.0000 
     18 C18         2.1676   -6.8668   -0.3227 C.3       1 UNK         0.0000 
     19 C19         1.5076   -6.6464   -1.7188 C.3       1 UNK         0.0000 
     20 C20         0.7290   -5.3313   -1.7899 C.2       1 UNK         0.0000 
     21 O21         1.2675   -4.2245   -1.6443 O.co2     1 UNK         0.0000 
     22 N22        -0.6131   -5.2824   -1.9216 N.am      1 UNK         0.0000 
     23 O23        -1.1852   -4.1363   -1.6228 O.co2     1 UNK         0.0000 
     24 C24        -1.4355   -6.1884   -2.7403 C.3       1 UNK         0.0000 
     25 C25        -2.8880   -6.3941   -2.2308 C.3       1 UNK         0.0000 
     26 C26        -3.9033   -6.9058   -3.2828 C.3       1 UNK         0.0000 
     27 C27        -4.0972   -6.0133   -4.5434 C.3       1 UNK         0.0000 
     28 C28        -4.6476   -4.5897   -4.2862 C.3       1 UNK         0.0000 
     29 N29        -4.6043   -3.7301   -5.4923 N.am      1 UNK         0.0000 
     30 C30        -3.7745   -2.7039   -5.7521 C.2       1 UNK         0.0000 
     31 O31        -3.8726   -2.0573   -6.7869 O.2       1 UNK         0.0000 
     32 C32        -2.7158   -2.3852   -4.7088 C.3       1 UNK         0.0000 
     33 C33        -1.6352   -1.2784   -4.9448 C.3       1 UNK         0.0000 
     34 C34        -0.7145   -1.3387   -3.7206 C.2       1 UNK         0.0000 
     35 O35        -1.0298   -1.9442   -2.7083 O.co2     1 UNK         0.0000 
     36 N36         0.5552   -0.8885   -3.5473 N.am      1 UNK         0.0000 
     37 O37         1.1500   -1.2648   -2.3911 O.co2     1 UNK         0.0000 
     38 C38         1.1514    0.2085   -4.3053 C.3       1 UNK         0.0000 
     39 C39         0.5429    1.5752   -3.9238 C.3       1 UNK         0.0000 
     40 C40         1.1529    2.7525   -4.6971 C.3       1 UNK         0.0000 
     41 C41         0.4915    4.0840   -4.3092 C.3       1 UNK         0.0000 
     42 C42         1.0338    5.2609   -5.1352 C.3       1 UNK         0.0000 
     43 N43         0.5147    6.5545   -4.6965 N.am      1 UNK         0.0000 
     44 C44         0.9102    7.1978   -3.5888 C.2       1 UNK         0.0000 
     45 O45         1.7303    6.7191   -2.8131 O.2       1 UNK         0.0000 
     46 C46         0.2750    8.5677   -3.3363 C.3       1 UNK         0.0000 
     47 C47         0.9848    9.4666   -2.2840 C.3       1 UNK         0.0000 
     48 C48         0.8761    9.0606   -0.7985 C.2       1 UNK         0.0000 
     49 O49         1.9217    8.8435   -0.1855 O.2       1 UNK         0.0000 
     50 N50        -0.3252    9.0452   -0.1599 N.am      1 UNK         0.0000 
     51 O51        -1.4907    9.3224   -0.9039 O.3       1 UNK         0.0000 
     52 C52        -0.5246    8.7649    1.2676 C.3       1 UNK         0.0000 
     53 C53        -0.2648    7.3064    1.6961 C.3       1 UNK         0.0000 
     54 C54        -1.3168    6.2998    1.1920 C.3       1 UNK         0.0000 
     55 C55        -1.1533    4.9167    1.8546 C.3       1 UNK         0.0000 
     56 C56        -2.3187    3.9624    1.5519 C.3       1 UNK         0.0000 
     57 N57        -2.2027    2.7154    2.3083 N.am      1 UNK         0.0000 
     58 H58        -1.2288    0.4198    3.3811 H         1 UNK         0.0000 
     59 H59        -2.9376    0.4572    3.5270 H         1 UNK         0.0000 
     60 H60        -3.2907   -1.2596    1.8333 H         1 UNK         0.0000 
     61 H61        -2.2360   -1.8321    3.0351 H         1 UNK         0.0000 
     62 H62        -0.0063   -1.7886    3.6436 H         1 UNK         0.0000 
     63 H63         1.5366   -2.0034    2.9014 H         1 UNK         0.0000 
     64 H64        -0.5961   -4.0837    3.4812 H         1 UNK         0.0000 
     65 H65         0.4155   -4.3685    2.1077 H         1 UNK         0.0000 
     66 H66         2.4572   -4.3411    3.4391 H         1 UNK         0.0000 
     67 H67         1.5982   -3.8019    4.8577 H         1 UNK         0.0000 
     68 H68         2.1900   -6.2584    4.8923 H         1 UNK         0.0000 
     69 H69         0.5191   -5.9083    5.1843 H         1 UNK         0.0000 
     70 H70         0.8988   -7.9277    3.7057 H         1 UNK         0.0000 
     71 H71        -0.1820   -6.7075    3.0852 H         1 UNK         0.0000 
     72 H72         2.6691   -6.6662    2.2105 H         1 UNK         0.0000 
     73 H73         2.7440   -7.7872   -0.3699 H         1 UNK         0.0000 
     74 H74         2.9231   -6.1083   -0.1219 H         1 UNK         0.0000 
     75 H75         0.9365   -7.5225   -2.0211 H         1 UNK         0.0000 
     76 H76         2.2828   -6.5690   -2.4775 H         1 UNK         0.0000 
     77 H77        -0.9800   -7.1603   -2.9255 H         1 UNK         0.0000 
     78 H78        -1.4687   -5.7315   -3.7318 H         1 UNK         0.0000 
     79 H79        -3.2828   -5.4774   -1.7974 H         1 UNK         0.0000 
     80 H80        -2.8517   -7.0909   -1.3923 H         1 UNK         0.0000 
     81 H81        -3.6039   -7.9093   -3.5961 H         1 UNK         0.0000 
     82 H82        -4.8698   -7.0397   -2.7878 H         1 UNK         0.0000 
     83 H83        -3.1601   -5.9544   -5.1006 H         1 UNK         0.0000 
     84 H84        -4.7938   -6.5239   -5.2121 H         1 UNK         0.0000 
     85 H85        -4.1037   -4.1518   -3.4485 H         1 UNK         0.0000 
     86 H86        -5.6684   -4.6462   -3.9002 H         1 UNK         0.0000 
     87 H87        -5.2894   -3.8904   -6.2116 H         1 UNK         0.0000 
     88 H88        -2.2208   -3.3483   -4.5593 H         1 UNK         0.0000 
     89 H89        -3.3081   -2.1192   -3.8301 H         1 UNK         0.0000 
     90 H90        -1.0475   -1.4774   -5.8409 H         1 UNK         0.0000 
     91 H91        -2.0774   -0.2830   -4.9658 H         1 UNK         0.0000 
     92 H92         2.2363    0.2353   -4.1422 H         1 UNK         0.0000 
     93 H93         1.0224    0.0359   -5.3710 H         1 UNK         0.0000 
     94 H94        -0.5340    1.5639   -4.1155 H         1 UNK         0.0000 
     95 H95         0.6601    1.7528   -2.8505 H         1 UNK         0.0000 
     96 H96         1.0506    2.5947   -5.7736 H         1 UNK         0.0000 
     97 H97         2.2257    2.8030   -4.4987 H         1 UNK         0.0000 
     98 H98         0.6519    4.2619   -3.2426 H         1 UNK         0.0000 
     99 H99        -0.5897    4.0127   -4.4431 H         1 UNK         0.0000 
    100 H100        2.1273    5.2638   -5.1034 H         1 UNK         0.0000 
    101 H101        0.7958    5.1122   -6.1907 H         1 UNK         0.0000 
    102 H102       -0.2015    6.9799   -5.2620 H         1 UNK         0.0000 
    103 H103        0.3575    9.0946   -4.2891 H         1 UNK         0.0000 
    104 H104       -0.8016    8.4942   -3.1853 H         1 UNK         0.0000 
    105 H105        2.0225    9.6379   -2.5677 H         1 UNK         0.0000 
    106 H106        0.5508   10.4647   -2.3344 H         1 UNK         0.0000 
    107 H107       -1.7456   10.2025   -0.6088 H         1 UNK         0.0000 
    108 H108       -1.5457    9.0328    1.5434 H         1 UNK         0.0000 
    109 H109        0.1167    9.4379    1.8386 H         1 UNK         0.0000 
    110 H110       -0.2615    7.2784    2.7862 H         1 UNK         0.0000 
    111 H111        0.7391    6.9944    1.4004 H         1 UNK         0.0000 
    112 H112       -1.2587    6.2114    0.1026 H         1 UNK         0.0000 
    113 H113       -2.3154    6.6840    1.4138 H         1 UNK         0.0000 
    114 H114       -0.2116    4.4639    1.5314 H         1 UNK         0.0000 
    115 H115       -1.0754    5.0460    2.9365 H         1 UNK         0.0000 
    116 H116       -3.2696    4.4342    1.8076 H         1 UNK         0.0000 
    117 H117       -2.3865    3.8070    0.4717 H         1 UNK         0.0000 
    118 H118       -2.0846    2.7908    3.3051 H         1 UNK         0.0000 
@<TRIPOS>BOND
     1    1    7 nc   
     2    1    9 nc   
     3    1   21 nc   
     4    1   23 nc   
     5    1   35 nc   
     6    1   37 nc   
     7    2    3 2    
     8    3   57 am   BACKBONE|DICT|INTERRES
     9    3    4 1    
    10    4   58 1    
    11    4   59 1    
    12    4    5 1    
    13    5   61 1    
    14    5    6 1    
    15    5   60 1    
    16    6    7 2    
    17    6    8 am   BACKBONE|DICT|INTERRES
    18    8   10 1    
    19    8    9 1    
    20   10   63 1    
    21   10   11 1    
    22   10   62 1    
    23   11   64 1    
    24   11   12 1    
    25   11   65 1    
    26   12   13 1    
    27   12   67 1    
    28   12   66 1    
    29   13   68 1    
    30   13   69 1    
    31   13   14 1    
    32   14   70 1    
    33   14   15 1    
    34   14   71 1    
    35   15   72 1    
    36   15   16 am   BACKBONE|DICT|INTERRES
    37   16   17 2    
    38   16   18 1    
    39   18   73 1    
    40   18   74 1    
    41   18   19 1    
    42   19   20 1    
    43   19   75 1    
    44   19   76 1    
    45   20   21 2    
    46   20   22 am   BACKBONE|DICT|INTERRES
    47   22   23 1    
    48   22   24 1    
    49   24   25 1    
    50   24   77 1    
    51   24   78 1    
    52   25   79 1    
    53   25   80 1    
    54   25   26 1    
    55   26   82 1    
    56   26   27 1    
    57   26   81 1    
    58   27   28 1    
    59   27   83 1    
    60   27   84 1    
    61   28   86 1    
    62   28   85 1    
    63   28   29 1    
    64   29   30 am   BACKBONE|DICT|INTERRES
    65   29   87 1    
    66   30   32 1    
    67   30   31 2    
    68   32   88 1    
    69   32   89 1    
    70   32   33 1    
    71   33   34 1    
    72   33   90 1    
    73   33   91 1    
    74   34   36 am   BACKBONE|DICT|INTERRES
    75   34   35 2    
    76   36   37 1    
    77   36   38 1    
    78   38   39 1    
    79   38   92 1    
    80   38   93 1    
    81   39   95 1    
    82   39   40 1    
    83   39   94 1    
    84   40   97 1    
    85   40   41 1    
    86   40   96 1    
    87   41   98 1    
    88   41   42 1    
    89   41   99 1    
    90   42  100 1    
    91   42   43 1    
    92   42  101 1    
    93   43   44 am   BACKBONE|DICT|INTERRES
    94   43  102 1    
    95   44   46 1    
    96   44   45 2    
    97   46  104 1    
    98   46   47 1    
    99   46  103 1    
   100   47   48 1    
   101   47  105 1    
   102   47  106 1    
   103   48   49 2    
   104   48   50 am   BACKBONE|DICT|INTERRES
   105   50   52 1    
   106   50   51 1    
   107   51  107 1    
   108   52  108 1    
   109   52   53 1    
   110   52  109 1    
   111   53  110 1    
   112   53   54 1    
   113   53  111 1    
   114   54  113 1    
   115   54   55 1    
   116   54  112 1    
   117   55  115 1    
   118   55   56 1    
   119   55  114 1    
   120   56  116 1    
   121   56   57 1    
   122   56  117 1    
   123   57  118 1    
@<TRIPOS>SUBSTRUCTURE
     1 UNK         1 GROUP             0       ****    0 ROOT    
