@<TRIPOS>MOLECULE
044_c1
131   135    1
SMALL
USER_CHARGES


@<TRIPOS>ATOM
      1 O1         13.3119    5.2535   -2.9702 O.co2     1 UNK         0.0000 
      2 C2         12.4948    6.0481   -3.4578 C.2       1 UNK         0.0000 
      3 C3         11.4544    5.5478   -4.4583 C.3       1 UNK         0.0000 
      4 N4         12.5451    7.3424   -3.0447 N.am      1 UNK         0.0000 
      5 O5         13.4835    7.8111   -2.2120 O.co2     1 UNK         0.0000 
      6 C6         11.5334    8.3528   -3.4251 C.3       1 UNK         0.0000 
      7 C7         10.6568    8.8538   -2.2475 C.3       1 UNK         0.0000 
      8 C8         11.3334    9.8009   -1.2166 C.3       1 UNK         0.0000 
      9 C9         11.8259   11.1698   -1.7724 C.3       1 UNK         0.0000 
     10 H10        12.4298   10.9874   -2.6627 H         1 UNK         0.0000 
     11 C11        10.6014   12.0524   -2.2226 C.2       1 UNK         0.0000 
     12 O12         9.9587   12.5839   -1.2841 O.co2     1 UNK         0.0000 
     13 O13        10.3090   11.9553   -3.4358 O.co2     1 UNK         0.0000 
     14 N14        12.7008   11.8442   -0.7860 N.am      1 UNK         0.0000 
     15 C15        13.4553   12.9329   -1.0192 C.2       1 UNK         0.0000 
     16 O16        13.5569   13.4987   -2.1037 O.2       1 UNK         0.0000 
     17 C17        14.3139   13.4226    0.1685 C.3       1 UNK         0.0000 
     18 H18        13.6638   13.4687    1.0408 H         1 UNK         0.0000 
     19 C19        14.9487   14.8265   -0.0195 C.3       1 UNK         0.0000 
     20 O20        14.0088   15.8783    0.1129 O.3       1 UNK         0.0000 
     21 N21        15.3556   12.4427    0.4931 N.am      1 UNK         0.0000 
     22 C22        16.3618   12.0733   -0.3103 C.2       1 UNK         0.0000 
     23 O23        16.6166   12.6136   -1.3854 O.2       1 UNK         0.0000 
     24 C24        17.2669   10.9277    0.1810 C.3       1 UNK         0.0000 
     25 H25        17.7610   11.2494    1.0999 H         1 UNK         0.0000 
     26 C26        16.4975    9.6074    0.4205 C.3       1 UNK         0.0000 
     27 C27        15.3753    9.5213    1.4815 C.3       1 UNK         0.0000 
     28 C28        15.0086    8.0726    1.9089 C.3       1 UNK         0.0000 
     29 N29        14.5575    7.1574    0.8313 N.am      1 UNK         0.0000 
     30 O30        15.4871    6.9741   -0.1094 O.co2     1 UNK         0.0000 
     31 C31        13.3479    6.5297    0.7664 C.2       1 UNK         0.0000 
     32 O32        13.1261    5.8164   -0.2298 O.co2     1 UNK         0.0000 
     33 C33        12.2649    6.6478    1.8411 C.3       1 UNK         0.0000 
     34 N34        18.2793   10.6995   -0.8496 N.am      1 UNK         0.0000 
     35 C35        19.3814    9.9625   -0.6927 C.2       1 UNK         0.0000 
     36 O36        19.8023    9.5986    0.4035 O.2       1 UNK         0.0000 
     37 C37        20.1095    9.4998   -1.9645 C.3       1 UNK         0.0000 
     38 H38        19.6653   10.0127   -2.8175 H         1 UNK         0.0000 
     39 C39        19.9207    7.9814   -2.2203 C.3       1 UNK         0.0000 
     40 C40        18.4563    7.4927   -2.2472 C.3       1 UNK         0.0000 
     41 C41        18.2772    6.0008   -2.6270 C.3       1 UNK         0.0000 
     42 N42        16.8958    5.5095   -2.4330 N.am      1 UNK         0.0000 
     43 O43        15.9788    6.3113   -2.9911 O.co2     1 UNK         0.0000 
     44 C44        16.5508    4.4843   -1.6072 C.2       1 UNK         0.0000 
     45 O45        15.3573    4.4128   -1.2675 O.co2     1 UNK         0.0000 
     46 C46        17.5530    3.4690   -1.0542 C.3       1 UNK         0.0000 
     47 N47        21.5221    9.8242   -1.7958 N.am      1 UNK         0.0000 
     48 C48        22.3111   10.6057   -2.5501 C.2       1 UNK         0.0000 
     49 O49        23.4716   10.8088   -2.2162 O.2       1 UNK         0.0000 
     50 C50        21.7724   11.2623   -3.8233 C.3       1 UNK         0.0000 
     51 C51        20.8349   12.4567   -3.5486 C.3       1 UNK         0.0000 
     52 H52        19.9615   12.1357   -2.9800 H         1 UNK         0.0000 
     53 O53        20.3358   12.9029   -4.7916 O.3       1 UNK         0.0000 
     54 C54        21.4457   13.6383   -2.7552 C.3       1 UNK         0.0000 
     55 C55        22.7438   14.2909   -3.2874 C.3       1 UNK         0.0000 
     56 C56        22.6116   14.9005   -4.6966 C.3       1 UNK         0.0000 
     57 C57        23.6180   16.0172   -5.0115 C.3       1 UNK         0.0000 
     58 C58        25.0996   15.6078   -4.9445 C.3       1 UNK         0.0000 
     59 C59        25.9990   16.7628   -5.4111 C.3       1 UNK         0.0000 
     60 C60        27.5074   16.4968   -5.2849 C.3       1 UNK         0.0000 
     61 C61        28.3130   17.6882   -5.8318 C.3       1 UNK         0.0000 
     62 C62        29.8351   17.5506   -5.6775 C.3       1 UNK         0.0000 
     63 C63        30.5703   18.7522   -6.2953 C.3       1 UNK         0.0000 
     64 H64        11.6026    4.4913   -4.6647 H         1 UNK         0.0000 
     65 H65        10.4475    5.6790   -4.0679 H         1 UNK         0.0000 
     66 H66        11.5350    6.0849   -5.4012 H         1 UNK         0.0000 
     67 H67        12.0480    9.1936   -3.8983 H         1 UNK         0.0000 
     68 H68        10.8499    8.0047   -4.2011 H         1 UNK         0.0000 
     69 H69        10.2501    7.9835   -1.7350 H         1 UNK         0.0000 
     70 H70         9.7941    9.3765   -2.6682 H         1 UNK         0.0000 
     71 H71        12.1558    9.2795   -0.7282 H         1 UNK         0.0000 
     72 H72        10.6165    9.9849   -0.4135 H         1 UNK         0.0000 
     73 H73        12.6246   11.4848    0.1481 H         1 UNK         0.0000 
     74 H74        15.4451   14.9198   -0.9880 H         1 UNK         0.0000 
     75 H75        15.7219   14.9840    0.7306 H         1 UNK         0.0000 
     76 H76        13.5557   15.9664   -0.7382 H         1 UNK         0.0000 
     77 H77        15.2257   11.9449    1.3581 H         1 UNK         0.0000 
     78 H78        17.2315    8.8359    0.6668 H         1 UNK         0.0000 
     79 H79        16.0602    9.3347   -0.5428 H         1 UNK         0.0000 
     80 H80        14.4696   10.0001    1.1129 H         1 UNK         0.0000 
     81 H81        15.6854   10.0635    2.3764 H         1 UNK         0.0000 
     82 H82        15.8998    7.6047    2.3367 H         1 UNK         0.0000 
     83 H83        14.3184    8.1563    2.7400 H         1 UNK         0.0000 
     84 H84        12.5296    7.2177    2.7258 H         1 UNK         0.0000 
     85 H85        12.0050    5.6463    2.1801 H         1 UNK         0.0000 
     86 H86        11.3703    7.1024    1.4154 H         1 UNK         0.0000 
     87 H87        18.0068   11.0735   -1.7519 H         1 UNK         0.0000 
     88 H88        20.4007    7.7360   -3.1698 H         1 UNK         0.0000 
     89 H89        20.4553    7.4224   -1.4496 H         1 UNK         0.0000 
     90 H90        17.8835    8.1051   -2.9467 H         1 UNK         0.0000 
     91 H91        18.0097    7.6371   -1.2623 H         1 UNK         0.0000 
     92 H92        18.5685    5.8503   -3.6692 H         1 UNK         0.0000 
     93 H93        19.0056    5.4344   -2.0484 H         1 UNK         0.0000 
     94 H94        17.1306    2.4664   -1.1191 H         1 UNK         0.0000 
     95 H95        17.7437    3.6871   -0.0043 H         1 UNK         0.0000 
     96 H96        18.4988    3.4451   -1.5933 H         1 UNK         0.0000 
     97 H97        21.9078    9.4887   -0.9236 H         1 UNK         0.0000 
     98 H98        21.2825   10.5013   -4.4307 H         1 UNK         0.0000 
     99 H99        22.6238   11.6049   -4.4159 H         1 UNK         0.0000 
    100 H100       19.8184   12.2048   -5.1985 H         1 UNK         0.0000 
    101 H101       21.6355   13.2960   -1.7350 H         1 UNK         0.0000 
    102 H102       20.6793   14.4097   -2.6528 H         1 UNK         0.0000 
    103 H103       23.5650   13.5690   -3.2747 H         1 UNK         0.0000 
    104 H104       23.0258   15.0736   -2.5792 H         1 UNK         0.0000 
    105 H105       21.6101   15.3207   -4.8136 H         1 UNK         0.0000 
    106 H106       22.6881   14.1055   -5.4414 H         1 UNK         0.0000 
    107 H107       23.4443   16.8531   -4.3308 H         1 UNK         0.0000 
    108 H108       23.3955   16.3943   -6.0111 H         1 UNK         0.0000 
    109 H109       25.2738   14.7294   -5.5679 H         1 UNK         0.0000 
    110 H110       25.3583   15.3226   -3.9230 H         1 UNK         0.0000 
    111 H111       25.7557   17.6612   -4.8403 H         1 UNK         0.0000 
    112 H112       25.7629   16.9927   -6.4520 H         1 UNK         0.0000 
    113 H113       27.7754   15.5884   -5.8280 H         1 UNK         0.0000 
    114 H114       27.7629   16.3208   -4.2382 H         1 UNK         0.0000 
    115 H115       27.9883   18.6001   -5.3269 H         1 UNK         0.0000 
    116 H116       28.0679   17.8218   -6.8873 H         1 UNK         0.0000 
    117 H117       30.0853   17.4641   -4.6185 H         1 UNK         0.0000 
    118 H118       30.1712   16.6272   -6.1526 H         1 UNK         0.0000 
    119 Fe119      14.4770    6.1573   -1.6474 Fe        1 UNK         0.0000 
    120 H120       30.1986   19.6744   -5.8447 H         1 UNK         0.0000 
    121 H121       30.3254   18.8123   -7.3574 H         1 UNK         0.0000 
    122 C122       32.0956   18.6890   -6.1272 C.3       1 UNK         0.0000 
    123 H123       32.3419   18.6616   -5.0642 H         1 UNK         0.0000 
    124 C124       32.8034   19.8826   -6.7895 C.3       1 UNK         0.0000 
    125 H125       32.4726   17.7589   -6.5561 H         1 UNK         0.0000 
    126 H126       32.4206   20.8175   -6.3750 H         1 UNK         0.0000 
    127 H127       32.5714   19.9027   -7.8562 H         1 UNK         0.0000 
    128 C128       34.3247   19.8436   -6.6096 C.3       1 UNK         0.0000 
    129 H129       34.5992   19.8751   -5.5541 H         1 UNK         0.0000 
    130 H130       34.7926   20.6993   -7.0997 H         1 UNK         0.0000 
    131 H131       34.7524   18.9383   -7.0432 H         1 UNK         0.0000 
@<TRIPOS>BOND
     1    1    2 2    
     2    1  119 nc   
     3    2    3 1    
     4    2    4 am   BACKBONE|DICT|INTERRES
     5    3   64 1    
     6    3   65 1    
     7    3   66 1    
     8    4    5 1    
     9    4    6 1    
    10    5  119 nc   
    11    6    7 1    
    12    6   67 1    
    13    6   68 1    
    14    7    8 1    
    15    7   69 1    
    16    7   70 1    
    17    8    9 1    
    18    8   71 1    
    19    8   72 1    
    20    9   10 1    
    21    9   11 1    
    22    9   14 1    
    23   11   12 1    
    24   11   13 2    
    25   14   15 am   BACKBONE|DICT|INTERRES
    26   14   73 1    
    27   15   16 2    
    28   15   17 1    
    29   17   19 1    
    30   17   21 1    
    31   17   18 1    
    32   19   20 1    
    33   19   74 1    
    34   19   75 1    
    35   20   76 1    
    36   21   22 am   BACKBONE|DICT|INTERRES
    37   21   77 1    
    38   22   23 2    
    39   22   24 1    
    40   24   25 1    
    41   24   26 1    
    42   24   34 1    
    43   26   27 1    
    44   26   78 1    
    45   26   79 1    
    46   27   28 1    
    47   27   80 1    
    48   27   81 1    
    49   28   29 1    
    50   28   82 1    
    51   28   83 1    
    52   29   30 1    
    53   29   31 am   BACKBONE|DICT|INTERRES
    54   30  119 nc   
    55   31   32 2    
    56   31   33 1    
    57   32  119 nc   
    58   33   84 1    
    59   33   85 1    
    60   33   86 1    
    61   34   35 am   BACKBONE|DICT|INTERRES
    62   34   87 1    
    63   35   36 2    
    64   35   37 1    
    65   37   39 1    
    66   37   47 1    
    67   37   38 1    
    68   39   40 1    
    69   39   88 1    
    70   39   89 1    
    71   40   41 1    
    72   40   90 1    
    73   40   91 1    
    74   41   42 1    
    75   41   92 1    
    76   41   93 1    
    77   42   43 1    
    78   42   44 am   BACKBONE|DICT|INTERRES
    79   43  119 nc   
    80   44   45 2    
    81   44   46 1    
    82   45  119 nc   
    83   46   94 1    
    84   46   95 1    
    85   46   96 1    
    86   47   48 am   BACKBONE|DICT|INTERRES
    87   47   97 1    
    88   48   49 2    
    89   48   50 1    
    90   50   98 1    
    91   50   99 1    
    92   50   51 1    
    93   51   53 1    
    94   51   54 1    
    95   51   52 1    
    96   53  100 1    
    97   54   55 1    
    98   54  101 1    
    99   54  102 1    
   100   55   56 1    
   101   55  103 1    
   102   55  104 1    
   103   56   57 1    
   104   56  105 1    
   105   56  106 1    
   106   57   58 1    
   107   57  107 1    
   108   57  108 1    
   109   58   59 1    
   110   58  109 1    
   111   58  110 1    
   112   59   60 1    
   113   59  111 1    
   114   59  112 1    
   115   60   61 1    
   116   60  113 1    
   117   60  114 1    
   118   61   62 1    
   119   61  115 1    
   120   61  116 1    
   121   62   63 1    
   122   62  117 1    
   123   62  118 1    
   124   63  120 1    
   125   63  121 1    
   126   63  122 1    
   127  122  123 1    
   128  122  124 1    
   129  122  125 1    
   130  124  126 1    
   131  124  127 1    
   132  124  128 1    
   133  128  129 1    
   134  128  130 1    
   135  128  131 1    
@<TRIPOS>SUBSTRUCTURE
     1 UNK         1 GROUP             0       ****    0 ROOT    
