@<TRIPOS>MOLECULE
181_P1_c1
71   79    1
SMALL
USER_CHARGES


@<TRIPOS>ATOM
      1 O1         -1.6814    4.3932    0.3586 O.co2     1 UNK         0.0000 
      2 C2         -2.4737    5.0800    1.0994 C.2       1 UNK         0.0000 
      3 O3         -2.2813    6.2466    1.4816 O.co2     1 UNK         0.0000 
      4 C4         -3.8491    4.3848    1.4204 C.3       1 UNK         0.0000 
      5 C5         -4.9527    5.1175    0.6031 C.3       1 UNK         0.0000 
      6 N6         -3.7564    2.9901    1.0244 N.pl3     1 UNK         0.0000 
      7 C7         -4.5014    2.1824    1.6625 C.2       1 UNK         0.0000 
      8 S8         -5.3661    2.9608    3.0359 S.3       1 UNK         0.0000 
      9 C9         -4.2055    4.3656    2.9162 C.3       1 UNK         0.0000 
     10 C10        -4.5745    0.6541    1.2655 C.3       1 UNK         0.0000 
     11 C11        -4.2995   -0.1410    2.5848 C.3       1 UNK         0.0000 
     12 C12        -6.0186    0.3218    0.7966 C.3       1 UNK         0.0000 
     13 C13        -3.5111    0.2056    0.1063 C.3       1 UNK         0.0000 
     14 H14        -3.7259   -0.8495   -0.1090 H         1 UNK         0.0000 
     15 O15        -2.2189    0.3319    0.6291 O.co2     1 UNK         0.0000 
     16 C16        -3.5820    0.9918   -1.3049 C.3       1 UNK         0.0000 
     17 H17        -4.5532    1.4915   -1.3436 H         1 UNK         0.0000 
     18 N18        -2.4878    2.0308   -1.4755 N.3       1 UNK         0.0000 
     19 C19        -2.9409    3.2512   -2.1624 C.3       1 UNK         0.0000 
     20 C20        -3.5253    0.0983   -2.5583 C.3       1 UNK         0.0000 
     21 S21        -1.7750   -0.1614   -2.8738 S.3       1 UNK         0.0000 
     22 C22        -1.3243    1.4705   -2.2315 C.3       1 UNK         0.0000 
     23 H23        -1.2256    1.9986   -3.1839 H         1 UNK         0.0000 
     24 C24         0.0945    1.5975   -1.5552 C.3       1 UNK         0.0000 
     25 H25         0.5749    2.4687   -2.0183 H         1 UNK         0.0000 
     26 N26         0.0125    1.9194   -0.1488 N.pl3     1 UNK         0.0000 
     27 C27         1.0455    1.6048    0.5509 C.2       1 UNK         0.0000 
     28 S28         2.2785    0.7409   -0.4504 S.3       1 UNK         0.0000 
     29 C29         1.0726    0.4364   -1.7357 C.3       1 UNK         0.0000 
     30 C30         1.1767    1.9223    2.0355 C.ar      1 UNK         0.0000 
     31 C31         2.3847    1.7405    2.7960 C.ar      1 UNK         0.0000 
     32 C32         3.6185    0.9003    2.4290 C.3       1 UNK         0.0000 
     33 C33         4.9336    1.6953    2.2204 C.3       1 UNK         0.0000 
     34 C34         5.2590    2.0941    0.7712 C.3       1 UNK         0.0000 
     35 C35         5.7143    0.9144   -0.1043 C.3       1 UNK         0.0000 
     36 C36         2.4782    2.2633    4.0948 C.ar      1 UNK         0.0000 
     37 C37         1.4210    2.8903    4.7119 C.ar      1 UNK         0.0000 
     38 C38         0.2011    2.9583    4.0589 C.ar      1 UNK         0.0000 
     39 C39         0.0584    2.4658    2.7634 C.ar      1 UNK         0.0000 
     40 O40        -1.1529    2.5179    2.3504 O.co2     1 UNK         0.0000 
     41 H41        -5.9260    4.6261    0.6563 H         1 UNK         0.0000 
     42 H42        -5.0821    6.1273    0.9976 H         1 UNK         0.0000 
     43 H43        -4.6920    5.2264   -0.4504 H         1 UNK         0.0000 
     44 H44        -3.3337    4.1529    3.5517 H         1 UNK         0.0000 
     45 H45        -4.6790    5.2965    3.2387 H         1 UNK         0.0000 
     46 H46        -5.0719    0.0486    3.3350 H         1 UNK         0.0000 
     47 H47        -3.3436    0.1410    3.0443 H         1 UNK         0.0000 
     48 H48        -4.2759   -1.2247    2.4316 H         1 UNK         0.0000 
     49 H49        -6.7408    0.5312    1.5896 H         1 UNK         0.0000 
     50 H50        -6.1405   -0.7463    0.5778 H         1 UNK         0.0000 
     51 H51        -6.3478    0.8910   -0.0763 H         1 UNK         0.0000 
     52 H52        -3.7653    3.7369   -1.6479 H         1 UNK         0.0000 
     53 H53        -3.2662    3.0243   -3.1823 H         1 UNK         0.0000 
     54 H54        -2.1176    3.9699   -2.2323 H         1 UNK         0.0000 
     55 H55        -3.9275    0.6349   -3.4253 H         1 UNK         0.0000 
     56 H56        -4.0478   -0.8586   -2.4770 H         1 UNK         0.0000 
     57 H57         0.6296   -0.5455   -1.5325 H         1 UNK         0.0000 
     58 H58         1.5572    0.4268   -2.7183 H         1 UNK         0.0000 
     59 H59         3.4580    0.1260    1.6929 H         1 UNK         0.0000 
     60 H60         3.7880    0.2781    3.3115 H         1 UNK         0.0000 
     61 H61         5.7693    1.1060    2.6025 H         1 UNK         0.0000 
     62 H62         4.9226    2.5933    2.8403 H         1 UNK         0.0000 
     63 H63         4.4023    2.6050    0.3261 H         1 UNK         0.0000 
     64 H64         6.0707    2.8275    0.7867 H         1 UNK         0.0000 
     65 H65         4.9732    0.1150   -0.1482 H         1 UNK         0.0000 
     66 H66         6.6387    0.4709    0.2751 H         1 UNK         0.0000 
     67 H67         5.9021    1.2458   -1.1281 H         1 UNK         0.0000 
     68 H68         3.3856    2.1450    4.6730 H         1 UNK         0.0000 
     69 H69         1.5142    3.2690    5.7208 H         1 UNK         0.0000 
     70 H70        -0.6459    3.3835    4.5831 H         1 UNK         0.0000 
     71 Fe71       -1.8391    2.3401    0.5261 Fe        1 UNK         0.0000 
@<TRIPOS>BOND
     1    1    2 1    
     2    1   71 nc   
     3    2    3 2    
     4    2    4 1    
     5    4    6 1    
     6    4    9 1    
     7    4    5 1    
     8    5   41 1    
     9    5   42 1    
    10    5   43 1    
    11    6    7 2    
    12    6   71 nc   
    13    7    8 1    
    14    7   10 1    
    15    8    9 1    
    16    9   44 1    
    17    9   45 1    
    18   10   11 1    
    19   10   12 1    
    20   10   13 1    
    21   11   46 1    
    22   11   47 1    
    23   11   48 1    
    24   12   49 1    
    25   12   50 1    
    26   12   51 1    
    27   13   15 1    
    28   13   14 1    
    29   13   16 1    
    30   15   71 nc   
    31   16   18 1    
    32   16   20 1    
    33   16   17 1    
    34   18   19 1    
    35   18   22 1    
    36   18   71 nc   
    37   19   52 1    
    38   19   53 1    
    39   19   54 1    
    40   20   21 1    
    41   20   55 1    
    42   20   56 1    
    43   21   22 1    
    44   22   23 1    
    45   22   24 1    
    46   24   26 1    
    47   24   29 1    
    48   24   25 1    
    49   26   27 2    
    50   26   71 nc   
    51   27   28 1    
    52   27   30 1    
    53   28   29 1    
    54   29   57 1    
    55   29   58 1    
    56   30   31 ar   
    57   30   39 ar   
    58   31   32 1    
    59   31   36 ar   
    60   32   33 1    
    61   32   59 1    
    62   32   60 1    
    63   33   34 1    
    64   33   61 1    
    65   33   62 1    
    66   34   35 1    
    67   34   63 1    
    68   34   64 1    
    69   35   65 1    
    70   35   66 1    
    71   35   67 1    
    72   36   37 ar   
    73   36   68 1    
    74   37   38 ar   
    75   37   69 1    
    76   38   39 ar   
    77   38   70 1    
    78   39   40 1    
    79   40   71 nc   
@<TRIPOS>SUBSTRUCTURE
     1 UNK         1 GROUP             0       ****    0 ROOT    
