@<TRIPOS>MOLECULE
002_c1
67   72    1
SMALL
USER_CHARGES


@<TRIPOS>ATOM
      1 Fe1         0.0000    0.0000    0.0000 Fe        1 UNK         0.0000 
      2 C2          4.0372    3.1879    0.0051 C.ar      1 UNK         0.0000 
      3 C3          3.0138    4.1232   -0.0002 C.ar      1 UNK         0.0000 
      4 C4          1.6950    3.7228   -0.0009 C.ar      1 UNK         0.0000 
      5 C5          1.3546    2.3717    0.0019 C.ar      1 UNK         0.0000 
      6 O6          0.0000    2.0800    0.0000 O.co2     1 UNK         0.0000 
      7 C7          2.4145    1.3527    0.0053 C.ar      1 UNK         0.0000 
      8 O8          2.0800   -0.0000    0.0000 O.co2     1 UNK         0.0000 
      9 C9          3.7916    1.7910    0.0084 C.ar      1 UNK         0.0000 
     10 C10         4.9771    0.8341    0.0218 C.2       1 UNK         0.0000 
     11 O11         4.7797   -0.3655    0.0947 O.2       1 UNK         0.0000 
     12 N12         6.2768    1.2633   -0.0423 N.am      1 UNK         0.0000 
     13 C13         7.4157    0.3577   -0.0266 C.3       1 UNK         0.0000 
     14 C14         8.2123    0.5165   -1.2872 C.2       1 UNK         0.0000 
     15 O15         8.3934   -0.5350   -2.1089 O.2       1 UNK         0.0000 
     16 O16         8.7038    1.5970   -1.5721 O.3       1 UNK         0.0000 
     17 H17         5.0217    3.6154    0.0119 H         1 UNK         0.0000 
     18 H18         3.2481    5.1807   -0.0010 H         1 UNK         0.0000 
     19 H19         0.9200    4.4800   -0.0039 H         1 UNK         0.0000 
     20 H20         6.5151    2.2569   -0.1077 H         1 UNK         0.0000 
     21 H21         8.0577    0.5973    0.8471 H         1 UNK         0.0000 
     22 H22         7.1051   -0.7049    0.0670 H         1 UNK         0.0000 
     23 C23         0.0351   -3.1793    4.0437 C.ar      1 UNK         0.0000 
     24 C24         0.0268   -4.1169    3.0223 C.ar      1 UNK         0.0000 
     25 C25         0.0161   -3.7205    1.7023 C.ar      1 UNK         0.0000 
     26 C26         0.0116   -2.3695    1.3570 C.ar      1 UNK         0.0000 
     27 O27         0.0000   -2.0800    0.0000 O.co2     1 UNK         0.0000 
     28 C28         0.0177   -1.3504    2.4160 C.ar      1 UNK         0.0000 
     29 O29         0.0000    0.0000    2.0800 O.co2     1 UNK         0.0000 
     30 C30         0.0317   -1.7840    3.7946 C.ar      1 UNK         0.0000 
     31 C31         0.0560   -0.8266    4.9811 C.2       1 UNK         0.0000 
     32 O32         0.1881    0.3689    4.7858 O.2       1 UNK         0.0000 
     33 N33        -0.0566   -1.2543    6.2790 N.am      1 UNK         0.0000 
     34 C34        -0.0239   -0.3566    7.4236 C.3       1 UNK         0.0000 
     35 C35        -1.3028   -0.4684    8.2000 C.2       1 UNK         0.0000 
     36 O36        -2.0817    0.6153    8.3793 O.2       1 UNK         0.0000 
     37 O37        -1.6395   -1.5396    8.6794 O.3       1 UNK         0.0000 
     38 H38         0.0556   -3.6033    5.0300 H         1 UNK         0.0000 
     39 H39         0.0322   -5.1731    3.2605 H         1 UNK         0.0000 
     40 H40         0.0113   -4.4792    0.9292 H         1 UNK         0.0000 
     41 H41        -0.1764   -2.2447    6.5111 H         1 UNK         0.0000 
     42 H42         0.8263   -0.6380    8.0804 H         1 UNK         0.0000 
     43 H43         0.1208    0.7026    7.1215 H         1 UNK         0.0000 
     44 C44        -3.1777    0.0717   -4.0434 C.ar      1 UNK         0.0000 
     45 C45        -4.1164    0.0591   -3.0229 C.ar      1 UNK         0.0000 
     46 C46        -3.7204    0.0371   -1.7018 C.ar      1 UNK         0.0000 
     47 C47        -2.3699    0.0239   -1.3560 C.ar      1 UNK         0.0000 
     48 O48        -2.0800    0.0000    0.0000 O.co2     1 UNK         0.0000 
     49 C49        -1.3507    0.0325   -2.4139 C.ar      1 UNK         0.0000 
     50 O50         0.0000    0.0000   -2.0800 O.co2     1 UNK         0.0000 
     51 C51        -1.7836    0.0603   -3.7916 C.ar      1 UNK         0.0000 
     52 C52        -0.8258    0.0979   -4.9748 C.2       1 UNK         0.0000 
     53 O53         0.3618    0.2912   -4.7805 O.2       1 UNK         0.0000 
     54 N54        -1.2474   -0.0653   -6.2690 N.am      1 UNK         0.0000 
     55 C55        -0.3534   -0.0175   -7.4153 C.3       1 UNK         0.0000 
     56 C56        -0.4039   -1.3188   -8.1602 C.2       1 UNK         0.0000 
     57 O57         0.7161   -2.0487   -8.3226 O.3       1 UNK         0.0000 
     58 O58        -1.4578   -1.7185   -8.6293 O.2       1 UNK         0.0000 
     59 H59        -3.5966    0.1072   -5.0320 H         1 UNK         0.0000 
     60 H60        -5.1723    0.0726   -3.2621 H         1 UNK         0.0000 
     61 H61        -4.4801    0.0299   -0.9298 H         1 UNK         0.0000 
     62 H62        -2.2313   -0.2429   -6.4941 H         1 UNK         0.0000 
     63 H63        -0.6763    0.8018   -8.0927 H         1 UNK         0.0000 
     64 H64         0.6973    0.1861   -7.1182 H         1 UNK         0.0000 
     65 H65         9.1768    1.5244   -2.4043 H         1 UNK         0.0000 
     66 H66        -2.4753   -1.4359    9.1402 H         1 UNK         0.0000 
     67 H67         0.5105   -2.8453   -8.8174 H         1 UNK         0.0000 
@<TRIPOS>BOND
     1    1    6 nc   
     2    1    8 nc   
     3    1   27 nc   
     4    1   29 nc   
     5    1   48 nc   
     6    1   50 nc   
     7    2    9 ar   
     8    2   17 1    
     9    2    3 ar   
    10    3    4 ar   
    11    3   18 1    
    12    4    5 ar   
    13    4   19 1    
    14    5    7 ar   
    15    5    6 1    
    16    7    9 ar   
    17    7    8 1    
    18    9   10 1    
    19   10   11 2    
    20   10   12 am   BACKBONE|DICT|INTERRES
    21   12   13 1    
    22   12   20 1    
    23   13   22 1    
    24   13   21 1    
    25   13   14 1    
    26   14   15 2    
    27   14   16 1    
    28   16   65 1    
    29   23   38 1    
    30   23   24 ar   
    31   23   30 ar   
    32   24   39 1    
    33   24   25 ar   
    34   25   26 ar   
    35   25   40 1    
    36   26   28 ar   
    37   26   27 1    
    38   28   30 ar   
    39   28   29 1    
    40   30   31 1    
    41   31   33 am   BACKBONE|DICT|INTERRES
    42   31   32 2    
    43   33   41 1    
    44   33   34 1    
    45   34   42 1    
    46   34   35 1    
    47   34   43 1    
    48   35   36 2    
    49   35   37 1    
    50   37   66 1    
    51   44   51 ar   
    52   44   45 ar   
    53   44   59 1    
    54   45   46 ar   
    55   45   60 1    
    56   46   47 ar   
    57   46   61 1    
    58   47   48 1    
    59   47   49 ar   
    60   49   50 1    
    61   49   51 ar   
    62   51   52 1    
    63   52   53 2    
    64   52   54 am   BACKBONE|DICT|INTERRES
    65   54   55 1    
    66   54   62 1    
    67   55   64 1    
    68   55   56 1    
    69   55   63 1    
    70   56   57 1    
    71   56   58 2    
    72   57   67 1    
@<TRIPOS>SUBSTRUCTURE
     1 UNK         1 GROUP             0       ****    0 ROOT    
