@<TRIPOS>MOLECULE
050_c1
100   108    1
SMALL
USER_CHARGES


@<TRIPOS>ATOM
      1 O1         -0.9617   -0.8986   -4.9774 O.co2     1 UNK         0.0000 
      2 C2          0.2311   -1.4886   -4.9905 C.ar      1 UNK         0.0000 
      3 C3          0.8788   -1.8537   -3.8106 C.ar      1 UNK         0.0000 
      4 C4          0.8483   -1.5352   -6.2263 C.ar      1 UNK         0.0000 
      5 O5          0.1592   -1.0127   -7.2703 O.co2     1 UNK         0.0000 
      6 C6          2.1937   -1.8496   -6.3138 C.ar      1 UNK         0.0000 
      7 C7          2.9157   -2.0122   -5.1152 C.ar      1 UNK         0.0000 
      8 C8          2.2788   -2.0948   -3.8302 C.ar      1 UNK         0.0000 
      9 C9          4.3646   -1.6177   -5.1315 C.3       1 UNK         0.0000 
     10 C10         4.3611   -0.4857   -4.0588 C.3       1 UNK         0.0000 
     11 H11         3.4048    0.0827   -4.1328 H         1 UNK         0.0000 
     12 C12         4.3061   -1.2035   -2.6974 C.3       1 UNK         0.0000 
     13 N13         3.1068   -2.1254   -2.6034 N.4       1 UNK         0.0000 
     14 C14         3.5804   -3.5106   -2.4546 C.3       1 UNK         0.0000 
     15 C15         2.3502   -1.7890   -1.3853 C.3       1 UNK         0.0000 
     16 N16         5.3200    0.5828   -4.2905 N.am      1 UNK         0.0000 
     17 C17         5.0884    1.8261   -3.7485 C.2       1 UNK         0.0000 
     18 O18         4.3973    1.9548   -2.7464 O.2       1 UNK         0.0000 
     19 C19         5.4558    3.0532   -4.5660 C.3       1 UNK         0.0000 
     20 H20         6.5340    2.9617   -4.8285 H         1 UNK         0.0000 
     21 C21         5.2801    4.3997   -3.8414 C.3       1 UNK         0.0000 
     22 O22         6.1253    4.4404   -2.7246 O.3       1 UNK         0.0000 
     23 N23         4.6475    2.9643   -5.7873 N.am      1 UNK         0.0000 
     24 C24         3.2661    3.0309   -5.8375 C.2       1 UNK         0.0000 
     25 O25         2.6173    3.4264   -4.8816 O.2       1 UNK         0.0000 
     26 C26         2.5443    2.2941   -6.9532 C.3       1 UNK         0.0000 
     27 H27         3.3708    1.6548   -7.3505 H         1 UNK         0.0000 
     28 C28         1.5598    1.1947   -6.4877 C.3       1 UNK         0.0000 
     29 O29         0.2754    1.4769   -5.9160 O.co2     1 UNK         0.0000 
     30 N30         2.0784    2.9726   -8.1556 N.am      1 UNK         0.0000 
     31 C31         0.8056    3.4195   -8.3110 C.2       1 UNK         0.0000 
     32 O32         0.1186    3.6771   -7.3328 O.2       1 UNK         0.0000 
     33 C33         0.1645    3.2954   -9.6988 C.3       1 UNK         0.0000 
     34 H34         0.5615    2.3792  -10.1900 H         1 UNK         0.0000 
     35 C35         0.4760    4.5370  -10.5814 C.3       1 UNK         0.0000 
     36 H36         0.0491    5.4301  -10.0629 H         1 UNK         0.0000 
     37 O37        -0.1410    4.3719  -11.8332 O.3       1 UNK         0.0000 
     38 C38         1.9721    4.7821  -10.8032 C.3       1 UNK         0.0000 
     39 N39        -1.2841    3.1184   -9.5715 N.am      1 UNK         0.0000 
     40 C40        -1.9089    2.2002   -8.7542 C.2       1 UNK         0.0000 
     41 O41        -1.2057    1.3756   -8.1190 O.co2     1 UNK         0.0000 
     42 C42        -3.3527    2.5916   -8.4585 C.3       1 UNK         0.0000 
     43 C43        -4.3368    1.5493   -7.9736 C.3       1 UNK         0.0000 
     44 H44        -3.8178    0.7847   -7.4444 H         1 UNK         0.0000 
     45 O45        -4.9214    0.9022   -9.0651 O.3       1 UNK         0.0000 
     46 C46        -5.4300    2.1691   -7.0589 C.3       1 UNK         0.0000 
     47 C47        -5.0261    3.0990   -5.8365 C.3       1 UNK         0.0000 
     48 H48        -4.5912    4.0543   -6.2072 H         1 UNK         0.0000 
     49 O49        -6.2171    3.4143   -5.1596 O.3       1 UNK         0.0000 
     50 C50        -4.0129    2.5725   -4.7554 C.3       1 UNK         0.0000 
     51 H51        -4.0192    3.2559   -3.8778 H         1 UNK         0.0000 
     52 N52        -4.3762    1.2243   -4.4394 N.2       1 UNK         0.0000 
     53 C53        -3.5582    0.4619   -5.0614 C.2       1 UNK         0.0000 
     54 O54        -2.5506    1.1288   -5.6880 O.3       1 UNK         0.0000 
     55 C55        -2.5564    2.4149   -5.2271 C.3       1 UNK         0.0000 
     56 C56        -3.7998   -0.9897   -5.2035 C.ar      1 UNK         0.0000 
     57 C57        -3.2332   -1.6963   -6.2849 C.ar      1 UNK         0.0000 
     58 O58        -2.4148   -1.0780   -7.1642 O.co2     1 UNK         0.0000 
     59 C59        -3.5175   -3.0554   -6.4566 C.ar      1 UNK         0.0000 
     60 C60        -4.3493   -3.7201   -5.5518 C.ar      1 UNK         0.0000 
     61 C61        -4.9186   -3.0243   -4.4832 C.ar      1 UNK         0.0000 
     62 C62        -4.6579   -1.6621   -4.3158 C.ar      1 UNK         0.0000 
     63 H63         0.3157   -1.7565   -2.8955 H         1 UNK         0.0000 
     64 H64         2.6947   -1.7104   -7.2643 H         1 UNK         0.0000 
     65 H65         4.6204   -1.1971   -6.1290 H         1 UNK         0.0000 
     66 H66         5.0879   -2.4292   -4.9051 H         1 UNK         0.0000 
     67 H67         4.3042   -0.4344   -1.8932 H         1 UNK         0.0000 
     68 H68         5.2719   -1.7489   -2.5791 H         1 UNK         0.0000 
     69 H69         4.1845   -3.8402   -3.3269 H         1 UNK         0.0000 
     70 H70         2.7253   -4.2195   -2.3611 H         1 UNK         0.0000 
     71 H71         4.2156   -3.6285   -1.5471 H         1 UNK         0.0000 
     72 H72         1.9520   -0.7509   -1.4417 H         1 UNK         0.0000 
     73 H73         2.9976   -1.8515   -0.4807 H         1 UNK         0.0000 
     74 H74         1.5049   -2.4920   -1.2119 H         1 UNK         0.0000 
     75 H75         5.9073    0.5140   -5.1357 H         1 UNK         0.0000 
     76 H76         4.2315    4.5443   -3.5089 H         1 UNK         0.0000 
     77 H77         5.5612    5.2142   -4.5454 H         1 UNK         0.0000 
     78 H78         5.9800    5.3255   -2.2999 H         1 UNK         0.0000 
     79 H79         5.1590    2.6389   -6.6223 H         1 UNK         0.0000 
     80 H80         2.1146    0.5991   -5.7574 H         1 UNK         0.0000 
     81 H81         1.4248    0.6961   -7.4556 H         1 UNK         0.0000 
     82 H82         2.5970    2.7368   -9.0171 H         1 UNK         0.0000 
     83 H83        -0.3616    5.2796  -12.1712 H         1 UNK         0.0000 
     84 H84         2.1101    5.6769  -11.4470 H         1 UNK         0.0000 
     85 H85         2.4379    3.9077  -11.3045 H         1 UNK         0.0000 
     86 H86         2.4907    4.9842   -9.8439 H         1 UNK         0.0000 
     87 H87        -1.8696    3.8407  -10.0213 H         1 UNK         0.0000 
     88 H88        -3.8283    3.1357   -9.3050 H         1 UNK         0.0000 
     89 H89        -3.2306    3.3983   -7.7300 H         1 UNK         0.0000 
     90 H90        -6.0396    1.3218   -6.6747 H         1 UNK         0.0000 
     91 H91        -6.0957    2.7819   -7.7062 H         1 UNK         0.0000 
     92 H92        -6.6849    4.1112   -5.6914 H         1 UNK         0.0000 
     93 H93        -2.1997    3.1881   -5.9265 H         1 UNK         0.0000 
     94 H94        -1.8720    2.4360   -4.3495 H         1 UNK         0.0000 
     95 H95        -3.0807   -3.6005   -7.2836 H         1 UNK         0.0000 
     96 H96        -4.5549   -4.7747   -5.6803 H         1 UNK         0.0000 
     97 H97        -5.5674   -3.5393   -3.7865 H         1 UNK         0.0000 
     98 H98        -5.1181   -1.1368   -3.4879 H         1 UNK         0.0000 
     99 Fe99       -1.1426    0.1762   -6.5428 Fe        1 UNK         0.0000 
    100 H100       -5.5506    0.2360   -8.7470 H         1 UNK         0.0000 
@<TRIPOS>BOND
     1    1    2 1    
     2    1   99 nc   
     3    2    3 ar   
     4    2    4 ar   
     5    3    8 ar   
     6    3   63 1    
     7    4    5 1    
     8    4    6 ar   
     9    5   99 nc   
    10    6    7 ar   
    11    6   64 1    
    12    7    8 ar   
    13    7    9 1    
    14    8   13 1    
    15    9   10 1    
    16    9   65 1    
    17    9   66 1    
    18   10   11 1    
    19   10   12 1    
    20   10   16 1    
    21   12   13 1    
    22   12   67 1    
    23   12   68 1    
    24   13   14 1    
    25   13   15 1    
    26   14   69 1    
    27   14   70 1    
    28   14   71 1    
    29   15   72 1    
    30   15   73 1    
    31   15   74 1    
    32   16   17 am   BACKBONE|DICT|INTERRES
    33   16   75 1    
    34   17   18 2    
    35   17   19 1    
    36   19   21 1    
    37   19   23 1    
    38   19   20 1    
    39   21   22 1    
    40   21   76 1    
    41   21   77 1    
    42   22   78 1    
    43   23   24 am   BACKBONE|DICT|INTERRES
    44   23   79 1    
    45   24   25 2    
    46   24   26 1    
    47   26   27 1    
    48   26   28 1    
    49   26   30 1    
    50   28   29 1    
    51   28   80 1    
    52   28   81 1    
    53   29   99 nc   
    54   30   31 am   BACKBONE|DICT|INTERRES
    55   30   82 1    
    56   31   32 2    
    57   31   33 1    
    58   33   39 1    
    59   33   34 1    
    60   33   35 1    
    61   35   37 1    
    62   35   38 1    
    63   35   36 1    
    64   37   83 1    
    65   38   84 1    
    66   38   85 1    
    67   38   86 1    
    68   39   40 am   BACKBONE|DICT|INTERRES
    69   39   87 1    
    70   40   41 2    
    71   40   42 1    
    72   41   99 nc   
    73   42   88 1    
    74   42   89 1    
    75   42   43 1    
    76   43   45 1    
    77   43   46 1    
    78   43   44 1    
    79   45  100 1    
    80   46   47 1    
    81   46   90 1    
    82   46   91 1    
    83   47   48 1    
    84   47   49 1    
    85   47   50 1    
    86   49   92 1    
    87   50   51 1    
    88   50   52 1    
    89   50   55 1    
    90   52   53 2    
    91   53   54 1    
    92   53   56 1    
    93   54   55 1    
    94   54   99 nc   
    95   55   93 1    
    96   55   94 1    
    97   56   57 ar   
    98   56   62 ar   
    99   57   58 1    
   100   57   59 ar   
   101   58   99 nc   
   102   59   60 ar   
   103   59   95 1    
   104   60   61 ar   
   105   60   96 1    
   106   61   62 ar   
   107   61   97 1    
   108   62   98 1    
@<TRIPOS>SUBSTRUCTURE
     1 UNK         1 GROUP             0       ****    0 ROOT    
