@<TRIPOS>MOLECULE
012_r3_c1
87   91    1
SMALL
USER_CHARGES


@<TRIPOS>ATOM
      1 Fe1         0.3226   -1.2724    0.8497 Fe        1 UNK         0.0000 
      2 C2         -0.4828    7.7423   -5.2611 C.3       1 UNK         0.0000 
      3 C3         -0.2602    6.4732   -4.4430 C.3       1 UNK         0.0000 
      4 C4         -0.6780    6.6829   -2.9799 C.3       1 UNK         0.0000 
      5 C5         -0.5146    5.4262   -2.1079 C.3       1 UNK         0.0000 
      6 C6          0.9467    4.9659   -1.9922 C.3       1 UNK         0.0000 
      7 C7          1.1082    3.8370   -1.0112 C.2       1 UNK         0.0000 
      8 C8          0.5366    2.6351   -1.1891 C.2       1 UNK         0.0000 
      9 C9          0.6931    1.4859   -0.2609 C.2       1 UNK         0.0000 
     10 O10         0.3085    0.3476   -0.5143 O.co2     1 UNK         0.0000 
     11 N11         1.2558    1.4306    0.9040 N.am      1 UNK         0.0000 
     12 O12         1.1476    0.1421    1.1271 O.co2     1 UNK         0.0000 
     13 C13         1.9122    2.3215    1.8384 C.3       1 UNK         0.0000 
     14 C14         1.0062    3.3730    2.5046 C.3       1 UNK         0.0000 
     15 C15        -0.3582    2.9015    3.0409 C.3       1 UNK         0.0000 
     16 N16        -0.3269    1.6659    3.8239 N.am      1 UNK         0.0000 
     17 C17        -1.2758    0.6965    3.6379 C.2       1 UNK         0.0000 
     18 O18        -2.1709    0.8840    2.8245 O.2       1 UNK         0.0000 
     19 C19        -1.3086   -0.6069    4.4415 C.3       1 UNK         0.0000 
     20 C20        -1.2207   -1.8779    3.5259 C.3       1 UNK         0.0000 
     21 O21        -0.0361   -1.8664    2.8033 O.3       1 UNK         0.0000 
     22 C22        -2.1351   -1.7814    2.3999 C.2       1 UNK         0.0000 
     23 O23        -1.4604   -1.5606    1.2553 O.co2     1 UNK         0.0000 
     24 O24        -3.3544   -1.7857    2.4705 O.co2     1 UNK         0.0000 
     25 C25        -1.3991   -3.2443    4.2637 C.3       1 UNK         0.0000 
     26 C26        -0.0877   -3.9720    4.4601 C.2       1 UNK         0.0000 
     27 O27         0.3405   -4.1517    5.5908 O.2       1 UNK         0.0000 
     28 N28         0.5967   -4.4215    3.3610 N.am      1 UNK         0.0000 
     29 C29         1.8872   -5.0767    3.4207 C.3       1 UNK         0.0000 
     30 C30         2.9689   -4.2897    2.6539 C.3       1 UNK         0.0000 
     31 C31         2.8843   -4.3039    1.1092 C.3       1 UNK         0.0000 
     32 N32         1.8146   -3.4767    0.5585 N.am      1 UNK         0.0000 
     33 O33         1.6522   -2.1647    0.7917 O.co2     1 UNK         0.0000 
     34 C34         0.8603   -3.6348   -0.3060 C.2       1 UNK         0.0000 
     35 O35         0.3240   -2.5323   -0.3651 O.co2     1 UNK         0.0000 
     36 C36         0.4195   -4.7811   -1.1498 C.2       1 UNK         0.0000 
     37 C37         0.9484   -6.0140   -1.2029 C.2       1 UNK         0.0000 
     38 C38         0.4289   -7.0592   -2.1535 C.3       1 UNK         0.0000 
     39 C39         1.5606   -7.4796   -3.1033 C.3       1 UNK         0.0000 
     40 C40         1.1668   -8.5956   -4.0818 C.3       1 UNK         0.0000 
     41 C41         0.0825   -8.1698   -5.0820 C.3       1 UNK         0.0000 
     42 C42        -0.2077   -9.2879   -6.0788 C.3       1 UNK         0.0000 
     43 H43         0.1211    8.5783   -4.8474 H         1 UNK         0.0000 
     44 H44        -0.1721    7.5675   -6.3127 H         1 UNK         0.0000 
     45 H45        -1.5562    8.0275   -5.2496 H         1 UNK         0.0000 
     46 H46        -0.8568    5.6472   -4.8870 H         1 UNK         0.0000 
     47 H47         0.8169    6.2132   -4.5046 H         1 UNK         0.0000 
     48 H48        -1.7507    6.9755   -2.9555 H         1 UNK         0.0000 
     49 H49        -0.0837    7.5130   -2.5381 H         1 UNK         0.0000 
     50 H50        -0.8852    5.6786   -1.0898 H         1 UNK         0.0000 
     51 H51        -1.1454    4.6056   -2.5131 H         1 UNK         0.0000 
     52 H52         1.3389    4.6389   -2.9773 H         1 UNK         0.0000 
     53 H53         1.5603    5.8203   -1.6319 H         1 UNK         0.0000 
     54 H54         2.2893    1.6843    2.6690 H         1 UNK         0.0000 
     55 H55         2.8059    2.7938    1.3800 H         1 UNK         0.0000 
     56 H56         0.7943    4.2140    1.8150 H         1 UNK         0.0000 
     57 H57         1.5954    3.7957    3.3479 H         1 UNK         0.0000 
     58 H58        -0.7593    3.7229    3.6730 H         1 UNK         0.0000 
     59 H59        -1.0414    2.8024    2.1700 H         1 UNK         0.0000 
     60 H60         0.3748    1.5581    4.5711 H         1 UNK         0.0000 
     61 H61        -2.2706   -0.6291    4.9982 H         1 UNK         0.0000 
     62 H62        -0.4854   -0.6293    5.1876 H         1 UNK         0.0000 
     63 H63         0.7092   -1.6882    3.4401 H         1 UNK         0.0000 
     64 H64        -1.9425   -3.0812    5.2196 H         1 UNK         0.0000 
     65 H65        -2.0196   -3.9486    3.6649 H         1 UNK         0.0000 
     66 H66         0.1764   -4.2929    2.4295 H         1 UNK         0.0000 
     67 H67         2.2255   -5.1621    4.4761 H         1 UNK         0.0000 
     68 H68         1.8086   -6.1063    3.0109 H         1 UNK         0.0000 
     69 H69         3.9308   -4.7913    2.9010 H         1 UNK         0.0000 
     70 H70         3.0342   -3.2472    3.0349 H         1 UNK         0.0000 
     71 H71         3.8402   -3.8738    0.7397 H         1 UNK         0.0000 
     72 H72         2.8614   -5.3436    0.7775 H         1 UNK         0.0000 
     73 H73         0.0844   -7.9367   -1.5654 H         1 UNK         0.0000 
     74 H74        -0.4309   -6.6648   -2.7345 H         1 UNK         0.0000 
     75 H75         2.4098   -7.8571   -2.4912 H         1 UNK         0.0000 
     76 H76         1.9168   -6.5961   -3.6784 H         1 UNK         0.0000 
     77 H77         0.8316   -9.4892   -3.5114 H         1 UNK         0.0000 
     78 H78         2.0798   -8.8716   -4.6545 H         1 UNK         0.0000 
     79 H79        -0.8606   -7.9240   -4.5516 H         1 UNK         0.0000 
     80 H80         0.4251   -7.2728   -5.6426 H         1 UNK         0.0000 
     81 H81         0.7102   -9.5430   -6.6506 H         1 UNK         0.0000 
     82 H82        -0.5701  -10.1936   -5.5476 H         1 UNK         0.0000 
     83 H83        -0.9898   -8.9562   -6.7936 H         1 UNK         0.0000 
     84 H84         1.7126    4.0233   -0.1357 H         1 UNK         0.0000 
     85 H85        -0.0852    2.4555   -2.0537 H         1 UNK         0.0000 
     86 H86         1.7691   -6.2780   -0.5524 H         1 UNK         0.0000 
     87 H87        -0.4205   -4.6674   -1.8190 H         1 UNK         0.0000 
@<TRIPOS>BOND
     1    1   10 nc   
     2    1   12 nc   
     3    1   21 nc   
     4    1   23 nc   
     5    1   33 nc   
     6    1   35 nc   
     7    2   45 1    
     8    2   43 1    
     9    2    3 1    
    10    2   44 1    
    11    3    4 1    
    12    3   46 1    
    13    3   47 1    
    14    4   48 1    
    15    4   49 1    
    16    4    5 1    
    17    5    6 1    
    18    5   50 1    
    19    5   51 1    
    20    6   53 1    
    21    6    7 1    
    22    6   52 1    
    23    7    8 2    
    24    7   84 1    
    25    8    9 1    
    26    8   85 1    
    27    9   11 am   BACKBONE|DICT|INTERRES
    28    9   10 2    
    29   11   12 1    
    30   11   13 1    
    31   13   14 1    
    32   13   54 1    
    33   13   55 1    
    34   14   15 1    
    35   14   57 1    
    36   14   56 1    
    37   15   58 1    
    38   15   16 1    
    39   15   59 1    
    40   16   60 1    
    41   16   17 am   BACKBONE|DICT|INTERRES
    42   17   19 1    
    43   17   18 2    
    44   19   61 1    
    45   19   62 1    
    46   19   20 1    
    47   20   21 1    
    48   20   25 1    
    49   20   22 1    
    50   21   63 1    
    51   22   24 2    
    52   22   23 1    
    53   25   26 1    
    54   25   64 1    
    55   25   65 1    
    56   26   27 2    
    57   26   28 am   BACKBONE|DICT|INTERRES
    58   28   29 1    
    59   28   66 1    
    60   29   67 1    
    61   29   30 1    
    62   29   68 1    
    63   30   69 1    
    64   30   70 1    
    65   30   31 1    
    66   31   32 1    
    67   31   71 1    
    68   31   72 1    
    69   32   33 1    
    70   32   34 am   BACKBONE|DICT|INTERRES
    71   34   35 2    
    72   34   36 1    
    73   36   37 2    
    74   36   87 1    
    75   37   38 1    
    76   37   86 1    
    77   38   73 1    
    78   38   39 1    
    79   38   74 1    
    80   39   75 1    
    81   39   40 1    
    82   39   76 1    
    83   40   77 1    
    84   40   41 1    
    85   40   78 1    
    86   41   79 1    
    87   41   42 1    
    88   41   80 1    
    89   42   82 1    
    90   42   81 1    
    91   42   83 1    
@<TRIPOS>SUBSTRUCTURE
     1 UNK         1 GROUP             0       ****    0 ROOT    
