@<TRIPOS>MOLECULE
183_c1
38   43    1
SMALL
USER_CHARGES


@<TRIPOS>ATOM
      1 O1         -2.9950    1.3524   12.2368 O.co2     1 UNK         0.0000 
      2 C2         -2.2758    2.5156   12.2434 C.2       1 UNK         0.0000 
      3 O3         -2.8824    3.5220   12.5785 O.co2     1 UNK         0.0000 
      4 C4         -0.7278    2.6187   11.9520 C.3       1 UNK         0.0000 
      5 H5         -0.1922    2.0407   12.7383 H         1 UNK         0.0000 
      6 C6         -0.3355    4.1173   11.9007 C.3       1 UNK         0.0000 
      7 C7         -0.2158    3.9032   10.3839 C.3       1 UNK         0.0000 
      8 N8         -0.0883    2.4631   10.5873 N.4       1 UNK         0.0000 
      9 H9          0.9329    2.3209   10.8048 H         1 UNK         0.0000 
     10 C10        -0.3103    1.4864    9.4726 C.3       1 UNK         0.0000 
     11 C11        -1.7300    1.4728    8.8140 C.3       1 UNK         0.0000 
     12 H12        -1.7921    2.1889    7.9675 H         1 UNK         0.0000 
     13 O13        -2.5233    2.0294    9.7662 O.co2     1 UNK         0.0000 
     14 C14        -2.3581    0.0743    8.3886 C.3       1 UNK         0.0000 
     15 H15        -2.0776   -0.2283    7.3560 H         1 UNK         0.0000 
     16 C16        -1.8182   -0.8903    9.3821 C.2       1 UNK         0.0000 
     17 O17        -2.1451   -0.5736   10.6327 O.co2     1 UNK         0.0000 
     18 O18        -1.1150   -1.8488    9.1044 O.co2     1 UNK         0.0000 
     19 N19        -3.8319    0.1340    8.6389 N.3       1 UNK         0.0000 
     20 C20        -4.5267   -1.1899    8.5320 C.3       1 UNK         0.0000 
     21 C21        -5.9346   -1.1931    9.2325 C.3       1 UNK         0.0000 
     22 C22        -5.9365   -0.3414   10.5553 C.3       1 UNK         0.0000 
     23 H23        -5.8393    0.3022    9.6886 H         1 UNK         0.0000 
     24 O24        -4.7270   -0.6792   11.2162 O.co2     1 UNK         0.0000 
     25 C25        -6.0979    1.1427   10.8469 C.2       1 UNK         0.0000 
     26 O26        -4.9928    1.9157   10.6719 O.co2     1 UNK         0.0000 
     27 O27        -7.1356    1.6114   11.2905 O.co2     1 UNK         0.0000 
     28 H28         0.6990    4.2105   12.3026 H         1 UNK         0.0000 
     29 H29        -0.9832    4.9456   12.2574 H         1 UNK         0.0000 
     30 H30         0.6450    4.4042    9.8881 H         1 UNK         0.0000 
     31 H31        -1.1843    4.1327    9.8853 H         1 UNK         0.0000 
     32 H32        -0.0276    0.5216    9.9274 H         1 UNK         0.0000 
     33 H33         0.4410    1.6206    8.6636 H         1 UNK         0.0000 
     34 H34        -3.9543   -1.9589    9.0873 H         1 UNK         0.0000 
     35 H35        -4.5932   -1.5466    7.4819 H         1 UNK         0.0000 
     36 H36        -6.7657   -0.9408    8.5035 H         1 UNK         0.0000 
     37 H37        -6.1518   -2.2540    9.4871 H         1 UNK         0.0000 
     38 Fe38       -3.5537    0.6963   10.5617 Fe        1 UNK         0.0000 
@<TRIPOS>BOND
     1    1    2 1    
     2    1   38 nc   
     3    2    3 2    
     4    2    4 1    
     5    4    5 1    
     6    4    6 1    
     7    4    8 1    
     8    6    7 1    
     9    6   28 1    
    10    6   29 1    
    11    7    8 1    
    12    7   30 1    
    13    7   31 1    
    14    8   10 1    
    15    8    9 1    
    16   10   32 1    
    17   10   33 1    
    18   10   11 1    
    19   11   13 1    
    20   11   14 1    
    21   11   12 1    
    22   13   38 nc   
    23   14   15 1    
    24   14   16 1    
    25   14   19 1    
    26   16   17 1    
    27   16   18 2    
    28   17   38 nc   
    29   19   20 1    
    30   19   38 nc   
    31   20   21 1    
    32   20   34 1    
    33   20   35 1    
    34   21   36 1    
    35   21   37 1    
    36   21   22 1    
    37   22   24 1    
    38   22   25 1    
    39   22   23 1    
    40   24   38 nc   
    41   25   26 1    
    42   25   27 2    
    43   26   38 nc   
@<TRIPOS>SUBSTRUCTURE
     1 UNK         1 GROUP             0       ****    0 ROOT    
