@<TRIPOS>MOLECULE
042_c1
124   128    1
SMALL
USER_CHARGES


@<TRIPOS>ATOM
      1 O1         14.0036    5.1175   -3.1343 O.co2     1 UNK         0.0000 
      2 C2         13.2222    5.8561   -3.7486 C.2       1 UNK         0.0000 
      3 C3         12.3640    5.2852   -4.8721 C.3       1 UNK         0.0000 
      4 N4         13.1337    7.1586   -3.3594 N.am      1 UNK         0.0000 
      5 O5         13.9081    7.6891   -2.4074 O.co2     1 UNK         0.0000 
      6 C6         12.1184    8.0954   -3.8837 C.3       1 UNK         0.0000 
      7 C7         11.0763    8.5534   -2.8291 C.3       1 UNK         0.0000 
      8 C8         11.5629    9.5655   -1.7518 C.3       1 UNK         0.0000 
      9 C9         12.0164   10.9565   -2.2797 C.3       1 UNK         0.0000 
     10 H10        12.7273   10.8140   -3.0970 H         1 UNK         0.0000 
     11 C11        10.7841   11.7344   -2.8749 C.2       1 UNK         0.0000 
     12 O12        10.0030   12.2404   -2.0350 O.co2     1 UNK         0.0000 
     13 O13        10.6101   11.5791   -4.1020 O.co2     1 UNK         0.0000 
     14 N14        12.7156   11.7081   -1.2152 N.am      1 UNK         0.0000 
     15 C15        13.4130   12.8427   -1.3904 C.2       1 UNK         0.0000 
     16 O16        13.5620   13.4146   -2.4635 O.2       1 UNK         0.0000 
     17 C17        14.1188   13.4073   -0.1393 C.3       1 UNK         0.0000 
     18 H18        13.3807   13.4453    0.6577 H         1 UNK         0.0000 
     19 C19        14.6703   14.8454   -0.2944 C.3       1 UNK         0.0000 
     20 O20        13.6266   15.8030   -0.2767 O.3       1 UNK         0.0000 
     21 N21        15.1686   12.5033    0.3337 N.am      1 UNK         0.0000 
     22 C22        16.2956   12.1906   -0.3167 C.2       1 UNK         0.0000 
     23 O23        16.6645   12.7387   -1.3520 O.2       1 UNK         0.0000 
     24 C24        17.1901   11.1078    0.3187 C.3       1 UNK         0.0000 
     25 H25        17.5101   11.4715    1.2985 H         1 UNK         0.0000 
     26 C26        16.4613    9.7515    0.4529 C.3       1 UNK         0.0000 
     27 C27        15.2593    9.5917    1.4041 C.3       1 UNK         0.0000 
     28 C28        14.9981    8.1225    1.8184 C.3       1 UNK         0.0000 
     29 N29        14.7391    7.1660    0.7150 N.am      1 UNK         0.0000 
     30 O30        15.7723    7.0415   -0.1258 O.co2     1 UNK         0.0000 
     31 C31        13.5925    6.4449    0.5454 C.2       1 UNK         0.0000 
     32 O32        13.5142    5.7171   -0.4579 O.co2     1 UNK         0.0000 
     33 C33        12.4047    6.5032    1.5014 C.3       1 UNK         0.0000 
     34 N34        18.3807   10.9050   -0.5114 N.am      1 UNK         0.0000 
     35 C35        19.4456   10.1866   -0.1168 C.2       1 UNK         0.0000 
     36 O36        19.6361    9.8734    1.0575 O.2       1 UNK         0.0000 
     37 C37        20.4370    9.7016   -1.1815 C.3       1 UNK         0.0000 
     38 H38        20.3171   10.3834   -2.0303 H         1 UNK         0.0000 
     39 C39        20.2050    8.2561   -1.6862 C.3       1 UNK         0.0000 
     40 C40        18.7869    7.7573   -1.9496 C.3       1 UNK         0.0000 
     41 C41        18.7888    6.2680   -2.3826 C.3       1 UNK         0.0000 
     42 N42        17.4582    5.6540   -2.3045 N.am      1 UNK         0.0000 
     43 O43        16.5417    6.3781   -2.9517 O.co2     1 UNK         0.0000 
     44 C44        17.1371    4.6148   -1.4846 C.2       1 UNK         0.0000 
     45 O45        15.9296    4.4528   -1.2409 O.co2     1 UNK         0.0000 
     46 C46        18.1761    3.7053   -0.8274 C.3       1 UNK         0.0000 
     47 N47        21.7854    9.7239   -0.6256 N.am      1 UNK         0.0000 
     48 C48        22.9241    9.7631   -1.3393 C.2       1 UNK         0.0000 
     49 O49        23.9890    9.4347   -0.8484 O.2       1 UNK         0.0000 
     50 C50        22.8808   10.3512   -2.7458 C.3       1 UNK         0.0000 
     51 H51        12.6198    4.2474   -5.0542 H         1 UNK         0.0000 
     52 H52        11.3076    5.3367   -4.6200 H         1 UNK         0.0000 
     53 H53        12.5276    5.8334   -5.7958 H         1 UNK         0.0000 
     54 H54        12.6457    8.9570   -4.3071 H         1 UNK         0.0000 
     55 H55        11.5594    7.6946   -4.7297 H         1 UNK         0.0000 
     56 H56        10.6935    7.6595   -2.3407 H         1 UNK         0.0000 
     57 H57        10.2307    8.9975   -3.3614 H         1 UNK         0.0000 
     58 H58        12.3640    9.1193   -1.1627 H         1 UNK         0.0000 
     59 H59        10.7476    9.7011   -1.0370 H         1 UNK         0.0000 
     60 H60        12.5664   11.3538   -0.2862 H         1 UNK         0.0000 
     61 H61        15.2885   14.9582   -1.1905 H         1 UNK         0.0000 
     62 H62        15.3192   15.0859    0.5469 H         1 UNK         0.0000 
     63 H63        13.2465   15.8432   -1.1676 H         1 UNK         0.0000 
     64 H64        14.9588   12.0101    1.1866 H         1 UNK         0.0000 
     65 H65        17.2050    9.0163    0.7764 H         1 UNK         0.0000 
     66 H66        16.1359    9.4631   -0.5534 H         1 UNK         0.0000 
     67 H67        14.3561    9.9825    0.9437 H         1 UNK         0.0000 
     68 H68        15.4328   10.1655    2.3159 H         1 UNK         0.0000 
     69 H69        15.8930    7.7380    2.3216 H         1 UNK         0.0000 
     70 H70        14.2377    8.1493    2.5878 H         1 UNK         0.0000 
     71 H71        12.5270    7.0999    2.4001 H         1 UNK         0.0000 
     72 H72        12.1919    5.4905    1.8337 H         1 UNK         0.0000 
     73 H73        11.5273    6.8855    0.9802 H         1 UNK         0.0000 
     74 H74        18.2882   11.2362   -1.4667 H         1 UNK         0.0000 
     75 H75        20.7934    8.1262   -2.5965 H         1 UNK         0.0000 
     76 H76        20.6437    7.5819   -0.9462 H         1 UNK         0.0000 
     77 H77        18.2931    8.3629   -2.7133 H         1 UNK         0.0000 
     78 H78        18.2047    7.8487   -1.0326 H         1 UNK         0.0000 
     79 H79        19.1736    6.1718   -3.4026 H         1 UNK         0.0000 
     80 H80        19.5155    5.7519   -1.7591 H         1 UNK         0.0000 
     81 H81        17.8488    2.6683   -0.8942 H         1 UNK         0.0000 
     82 H82        18.2677    3.9647    0.2263 H         1 UNK         0.0000 
     83 H83        19.1620    3.7500   -1.2940 H         1 UNK         0.0000 
     84 H84        21.8368    9.4985    0.3610 H         1 UNK         0.0000 
     85 Fe85       14.9611    6.1302   -1.7303 Fe        1 UNK         0.0000 
     86 H86        22.1273    9.8521   -3.3552 H         1 UNK         0.0000 
     87 H87        23.8288   10.1762   -3.2590 H         1 UNK         0.0000 
     88 C88        22.6105   11.8551   -2.6285 C.3       1 UNK         0.0000 
     89 H89        22.0058   12.0950   -1.7473 H         1 UNK         0.0000 
     90 C90        21.8735   12.4473   -3.8143 C.3       1 UNK         0.0000 
     91 H91        23.5599   12.3691   -2.4672 H         1 UNK         0.0000 
     92 H92        20.8944   11.9810   -3.9438 H         1 UNK         0.0000 
     93 H93        22.4363   12.2895   -4.7352 H         1 UNK         0.0000 
     94 C94        21.7055   13.9300   -3.5303 C.3       1 UNK         0.0000 
     95 H95        21.0673   14.0789   -2.6554 H         1 UNK         0.0000 
     96 C96        21.1222   14.6711   -4.7078 C.3       1 UNK         0.0000 
     97 H97        22.6777   14.3625   -3.2838 H         1 UNK         0.0000 
     98 H98        20.0953   14.3478   -4.8951 H         1 UNK         0.0000 
     99 H99        21.6986   14.4520   -5.6097 H         1 UNK         0.0000 
    100 C100       21.1721   16.1573   -4.4112 C.3       1 UNK         0.0000 
    101 H101       20.5593   16.3907   -3.5368 H         1 UNK         0.0000 
    102 C102       20.6929   16.9332   -5.6137 C.3       1 UNK         0.0000 
    103 H103       22.1952   16.4572   -4.1676 H         1 UNK         0.0000 
    104 H104       19.6634   16.6500   -5.8440 H         1 UNK         0.0000 
    105 H105       21.2985   16.6736   -6.4851 H         1 UNK         0.0000 
    106 C106       20.7858   18.4205   -5.3440 C.3       1 UNK         0.0000 
    107 H107       20.1884   18.6790   -4.4673 H         1 UNK         0.0000 
    108 C108       20.2904   19.1712   -6.5609 C.3       1 UNK         0.0000 
    109 H109       21.8177   18.6990   -5.1198 H         1 UNK         0.0000 
    110 H110       19.2707   18.8562   -6.7922 H         1 UNK         0.0000 
    111 H111       20.9023   18.9078   -7.4260 H         1 UNK         0.0000 
    112 C112       20.3288   20.6699   -6.3284 C.3       1 UNK         0.0000 
    113 H113       19.7226   20.9245   -5.4571 H         1 UNK         0.0000 
    114 C114       19.8065   21.3863   -7.5649 C.3       1 UNK         0.0000 
    115 H115       21.3508   20.9845   -6.1088 H         1 UNK         0.0000 
    116 H116       18.7908   21.0446   -7.7766 H         1 UNK         0.0000 
    117 H117       20.4150   21.1047   -8.4272 H         1 UNK         0.0000 
    118 C118       19.8171   22.9004   -7.3953 C.3       1 UNK         0.0000 
    119 H119       19.2066   23.1834   -6.5354 H         1 UNK         0.0000 
    120 C120       19.2854   23.5822   -8.6485 C.3       1 UNK         0.0000 
    121 H121       20.8327   23.2453   -7.1908 H         1 UNK         0.0000 
    122 H122       18.2603   23.2693   -8.8546 H         1 UNK         0.0000 
    123 H123       19.8979   23.3306   -9.5161 H         1 UNK         0.0000 
    124 H124       19.2999   24.6623   -8.5125 H         1 UNK         0.0000 
@<TRIPOS>BOND
     1    1    2 2    
     2    1   85 nc   
     3    2    3 1    
     4    2    4 am   BACKBONE|DICT|INTERRES
     5    3   51 1    
     6    3   52 1    
     7    3   53 1    
     8    4    5 1    
     9    4    6 1    
    10    5   85 nc   
    11    6    7 1    
    12    6   54 1    
    13    6   55 1    
    14    7    8 1    
    15    7   56 1    
    16    7   57 1    
    17    8    9 1    
    18    8   58 1    
    19    8   59 1    
    20    9   10 1    
    21    9   11 1    
    22    9   14 1    
    23   11   12 1    
    24   11   13 2    
    25   14   15 am   BACKBONE|DICT|INTERRES
    26   14   60 1    
    27   15   16 2    
    28   15   17 1    
    29   17   19 1    
    30   17   21 1    
    31   17   18 1    
    32   19   20 1    
    33   19   61 1    
    34   19   62 1    
    35   20   63 1    
    36   21   22 am   BACKBONE|DICT|INTERRES
    37   21   64 1    
    38   22   23 2    
    39   22   24 1    
    40   24   25 1    
    41   24   26 1    
    42   24   34 1    
    43   26   27 1    
    44   26   65 1    
    45   26   66 1    
    46   27   28 1    
    47   27   67 1    
    48   27   68 1    
    49   28   29 1    
    50   28   69 1    
    51   28   70 1    
    52   29   30 1    
    53   29   31 am   BACKBONE|DICT|INTERRES
    54   30   85 nc   
    55   31   32 2    
    56   31   33 1    
    57   32   85 nc   
    58   33   71 1    
    59   33   72 1    
    60   33   73 1    
    61   34   35 am   BACKBONE|DICT|INTERRES
    62   34   74 1    
    63   35   36 2    
    64   35   37 1    
    65   37   39 1    
    66   37   47 1    
    67   37   38 1    
    68   39   40 1    
    69   39   75 1    
    70   39   76 1    
    71   40   41 1    
    72   40   77 1    
    73   40   78 1    
    74   41   42 1    
    75   41   79 1    
    76   41   80 1    
    77   42   43 1    
    78   42   44 am   BACKBONE|DICT|INTERRES
    79   43   85 nc   
    80   44   45 2    
    81   44   46 1    
    82   45   85 nc   
    83   46   81 1    
    84   46   82 1    
    85   46   83 1    
    86   47   48 am   BACKBONE|DICT|INTERRES
    87   47   84 1    
    88   48   49 2    
    89   48   50 1    
    90   50   86 1    
    91   50   87 1    
    92   50   88 1    
    93   88   89 1    
    94   88   90 1    
    95   88   91 1    
    96   90   92 1    
    97   90   93 1    
    98   90   94 1    
    99   94   95 1    
   100   94   96 1    
   101   94   97 1    
   102   96   98 1    
   103   96   99 1    
   104   96  100 1    
   105  100  101 1    
   106  100  102 1    
   107  100  103 1    
   108  102  104 1    
   109  102  105 1    
   110  102  106 1    
   111  106  107 1    
   112  106  108 1    
   113  106  109 1    
   114  108  110 1    
   115  108  111 1    
   116  108  112 1    
   117  112  113 1    
   118  112  114 1    
   119  112  115 1    
   120  114  116 1    
   121  114  117 1    
   122  114  118 1    
   123  118  119 1    
   124  118  120 1    
   125  118  121 1    
   126  120  122 1    
   127  120  123 1    
   128  120  124 1    
@<TRIPOS>SUBSTRUCTURE
     1 UNK         1 GROUP             0       ****    0 ROOT    
