@<TRIPOS>MOLECULE
175_c1
68   75    1
SMALL
USER_CHARGES


@<TRIPOS>ATOM
      1 Fe1         0.2209   -0.8553    1.9552 Fe        1 UNK         0.0000 
      2 O2          0.2643   -3.0127    1.8656 O.co2     1 UNK         0.0000 
      3 N3         -0.5953   -3.6308    1.0584 N.am      1 UNK         0.0000 
      4 C4         -0.3429   -5.0254    0.6639 C.3       1 UNK         0.0000 
      5 C5         -1.6308   -5.6570    0.1117 C.3       1 UNK         0.0000 
      6 C6         -2.1422   -4.8045   -1.0444 C.3       1 UNK         0.0000 
      7 C7         -2.4456   -3.3540   -0.6055 C.3       1 UNK         0.0000 
      8 H8         -3.3649   -3.3568   -0.0267 H         1 UNK         0.0000 
      9 C9         -1.4356   -2.7599    0.4317 C.2       1 UNK         0.0000 
     10 O10        -1.3797   -1.5630    0.7327 O.co2     1 UNK         0.0000 
     11 N11        -2.7218   -2.4064   -1.7012 N.am      1 UNK         0.0000 
     12 C12        -1.8495   -2.0701   -2.6707 C.2       1 UNK         0.0000 
     13 O13        -0.7360   -2.5875   -2.8008 O.2       1 UNK         0.0000 
     14 C14        -2.3256   -1.0368   -3.7008 C.3       1 UNK         0.0000 
     15 N15        -1.5323    0.1582   -3.4458 N.am      1 UNK         0.0000 
     16 C16        -2.0273    1.3466   -3.0821 C.2       1 UNK         0.0000 
     17 O17        -3.2308    1.6308   -3.1856 O.2       1 UNK         0.0000 
     18 C18        -0.9849    2.3896   -2.5859 C.3       1 UNK         0.0000 
     19 H19        -0.5623    2.7063   -3.5379 H         1 UNK         0.0000 
     20 N20         0.1647    1.8231   -1.8522 N.am      1 UNK         0.0000 
     21 C21         1.4288    1.6242   -2.2822 C.2       1 UNK         0.0000 
     22 O22         1.7901    2.0012   -3.4036 O.2       1 UNK         0.0000 
     23 C23         2.3705    0.8584   -1.3407 C.ar      1 UNK         0.0000 
     24 C24         1.9570    0.3500   -0.0760 C.ar      1 UNK         0.0000 
     25 O25         0.7559    0.3801    0.2992 O.co2     1 UNK         0.0000 
     26 C26         2.8456   -0.2979    0.7943 C.ar      1 UNK         0.0000 
     27 O27         2.4640   -0.6929    1.9533 O.co2     1 UNK         0.0000 
     28 C28         4.1361   -0.5594    0.3615 C.ar      1 UNK         0.0000 
     29 C29         4.5552   -0.1649   -0.9152 C.ar      1 UNK         0.0000 
     30 C30         3.6938    0.5663   -1.7423 C.ar      1 UNK         0.0000 
     31 C31        -1.5815    3.7012   -1.9898 C.3       1 UNK         0.0000 
     32 C32        -2.6551    3.6586   -0.8579 C.3       1 UNK         0.0000 
     33 C33        -2.1005    3.7226    0.5843 C.3       1 UNK         0.0000 
     34 N34        -2.3114    2.5310    1.3979 N.am      1 UNK         0.0000 
     35 C35        -3.1682    2.3364    2.4135 C.2       1 UNK         0.0000 
     36 O36        -4.1323    3.0836    2.6226 O.2       1 UNK         0.0000 
     37 C37        -2.8570    1.1312    3.3059 C.ar      1 UNK         0.0000 
     38 C38        -1.6131    0.4629    3.2553 C.ar      1 UNK         0.0000 
     39 O39        -0.7475    0.6404    2.3672 O.co2     1 UNK         0.0000 
     40 C40        -1.2860   -0.6007    4.0884 C.ar      1 UNK         0.0000 
     41 O41        -0.1632   -1.1433    3.8440 O.co2     1 UNK         0.0000 
     42 C42        -2.2438   -1.0917    4.9705 C.ar      1 UNK         0.0000 
     43 C43        -3.5136   -0.4866    5.0191 C.ar      1 UNK         0.0000 
     44 C44        -3.8092    0.6278    4.2105 C.ar      1 UNK         0.0000 
     45 H45         0.4403   -5.0237   -0.0870 H         1 UNK         0.0000 
     46 H46         0.0520   -5.5962    1.4997 H         1 UNK         0.0000 
     47 H47        -2.3834   -5.7446    0.8988 H         1 UNK         0.0000 
     48 H48        -1.4272   -6.6748   -0.2224 H         1 UNK         0.0000 
     49 H49        -3.0450   -5.2439   -1.4577 H         1 UNK         0.0000 
     50 H50        -1.4087   -4.8197   -1.8447 H         1 UNK         0.0000 
     51 H51        -3.5200   -1.7996   -1.5730 H         1 UNK         0.0000 
     52 H52        -3.4065   -0.8686   -3.6430 H         1 UNK         0.0000 
     53 H53        -2.1112   -1.4075   -4.7067 H         1 UNK         0.0000 
     54 H54        -0.5316    0.0124   -3.3382 H         1 UNK         0.0000 
     55 H55         0.0400    1.4187   -0.9133 H         1 UNK         0.0000 
     56 H56         4.7856   -1.1148    1.0101 H         1 UNK         0.0000 
     57 H57         5.5484   -0.4216   -1.2500 H         1 UNK         0.0000 
     58 H58         4.0585    0.8947   -2.7112 H         1 UNK         0.0000 
     59 H59        -0.7682    4.3766   -1.7193 H         1 UNK         0.0000 
     60 H60        -2.0509    4.1871   -2.8440 H         1 UNK         0.0000 
     61 H61        -3.3831    2.8545   -0.9882 H         1 UNK         0.0000 
     62 H62        -3.2529    4.5577   -0.9922 H         1 UNK         0.0000 
     63 H63        -2.5685    4.5481    1.1273 H         1 UNK         0.0000 
     64 H64        -1.0309    3.9530    0.5611 H         1 UNK         0.0000 
     65 H65        -1.4956    1.9066    1.5398 H         1 UNK         0.0000 
     66 H66        -2.0049   -1.9710    5.5506 H         1 UNK         0.0000 
     67 H67        -4.2771   -0.8851    5.6721 H         1 UNK         0.0000 
     68 H68        -4.7853    1.1022    4.2705 H         1 UNK         0.0000 
@<TRIPOS>BOND
     1    1    2 nc   
     2    1   10 nc   
     3    1   25 nc   
     4    1   27 nc   
     5    1   39 nc   
     6    1   41 nc   
     7    2    3 1    
     8    3    4 1    
     9    3    9 am   BACKBONE|DICT|INTERRES
    10    4   46 1    
    11    4    5 1    
    12    4   45 1    
    13    5   47 1    
    14    5    6 1    
    15    5   48 1    
    16    6    7 1    
    17    6   49 1    
    18    6   50 1    
    19    7    8 1    
    20    7    9 1    
    21    7   11 1    
    22    9   10 2    
    23   11   12 am   BACKBONE|DICT|INTERRES
    24   11   51 1    
    25   12   13 2    
    26   12   14 1    
    27   14   52 1    
    28   14   15 1    
    29   14   53 1    
    30   15   16 am   BACKBONE|DICT|INTERRES
    31   15   54 1    
    32   16   17 2    
    33   16   18 1    
    34   18   19 1    
    35   18   31 1    
    36   18   20 1    
    37   20   55 1    
    38   20   21 am   BACKBONE|DICT|INTERRES
    39   21   23 1    
    40   21   22 2    
    41   23   24 ar   
    42   23   30 ar   
    43   24   25 1    
    44   24   26 ar   
    45   26   27 1    
    46   26   28 ar   
    47   28   56 1    
    48   28   29 ar   
    49   29   30 ar   
    50   29   57 1    
    51   30   58 1    
    52   31   59 1    
    53   31   32 1    
    54   31   60 1    
    55   32   33 1    
    56   32   61 1    
    57   32   62 1    
    58   33   64 1    
    59   33   63 1    
    60   33   34 1    
    61   34   35 am   BACKBONE|DICT|INTERRES
    62   34   65 1    
    63   35   36 2    
    64   35   37 1    
    65   37   38 ar   
    66   37   44 ar   
    67   38   40 ar   
    68   38   39 1    
    69   40   42 ar   
    70   40   41 1    
    71   42   43 ar   
    72   42   66 1    
    73   43   67 1    
    74   43   44 ar   
    75   44   68 1    
@<TRIPOS>SUBSTRUCTURE
     1 UNK         1 GROUP             0       ****    0 ROOT    
