@<TRIPOS>MOLECULE
224_c1
48   53    1
SMALL
USER_CHARGES


@<TRIPOS>ATOM
      1 Fe1         0.1923    0.4020    0.9020 Fe        1 UNK         0.0000 
      2 O2         -0.4481   -0.8288    2.5038 O.co2     1 UNK         0.0000 
      3 C3         -0.1170   -1.9808    2.2643 C.2       1 UNK         0.0000 
      4 C4         -0.8427   -3.1770    2.8692 C.3       1 UNK         0.0000 
      5 N5          0.9115   -2.0696    1.3899 N.am      1 UNK         0.0000 
      6 O6          1.6944   -1.0016    1.1827 O.co2     1 UNK         0.0000 
      7 C7          0.9924   -3.1318    0.3712 C.3       1 UNK         0.0000 
      8 C8         -0.3143   -3.4202   -0.4512 C.3       1 UNK         0.0000 
      9 C9         -0.4755   -2.9206   -1.9203 C.3       1 UNK         0.0000 
     10 C10        -0.6772   -1.4218   -2.3314 C.3       1 UNK         0.0000 
     11 H11        -1.0637   -1.4975   -3.3498 H         1 UNK         0.0000 
     12 N12         0.6339   -0.7267   -2.6087 N.am      1 UNK         0.0000 
     13 C13         0.8484    0.5451   -2.2247 C.2       1 UNK         0.0000 
     14 O14         1.2258    0.6972   -1.0739 O.co2     1 UNK         0.0000 
     15 C15        -1.8039   -0.5167   -1.5801 C.3       1 UNK         0.0000 
     16 O16        -1.4982   -0.3504   -0.2300 O.co2     1 UNK         0.0000 
     17 N17        -1.7073    0.8462   -2.1282 N.3       1 UNK         0.0000 
     18 C18        -0.4077    1.3666   -2.7077 C.3       1 UNK         0.0000 
     19 H19        -0.4458    1.1893   -3.7863 H         1 UNK         0.0000 
     20 C20        -0.1636    2.9096   -2.6352 C.3       1 UNK         0.0000 
     21 C21        -0.6443    3.7125   -1.3901 C.3       1 UNK         0.0000 
     22 C22         0.3229    3.8766   -0.1726 C.3       1 UNK         0.0000 
     23 N23         0.1728    2.9045    0.9212 N.am      1 UNK         0.0000 
     24 O24         1.1580    2.0237    1.0576 O.co2     1 UNK         0.0000 
     25 C25        -1.0102    2.6277    1.4807 C.2       1 UNK         0.0000 
     26 O26        -1.0639    1.4471    1.8125 O.co2     1 UNK         0.0000 
     27 C27        -2.1895    3.5972    1.5714 C.3       1 UNK         0.0000 
     28 H28        -0.1446   -3.7118    3.5116 H         1 UNK         0.0000 
     29 H29        -1.2385   -3.8789    2.1388 H         1 UNK         0.0000 
     30 H30        -1.6786   -2.8379    3.4850 H         1 UNK         0.0000 
     31 H31         1.2725   -4.0363    0.9219 H         1 UNK         0.0000 
     32 H32         1.8436   -2.9768   -0.2984 H         1 UNK         0.0000 
     33 H33        -0.3706   -4.5100   -0.5145 H         1 UNK         0.0000 
     34 H34        -1.2146   -3.1413    0.0985 H         1 UNK         0.0000 
     35 H35        -1.3499   -3.4480   -2.3110 H         1 UNK         0.0000 
     36 H36         0.3506   -3.3197   -2.5090 H         1 UNK         0.0000 
     37 H37         1.1717   -1.0445   -3.3998 H         1 UNK         0.0000 
     38 H38        -2.4853    1.0037   -2.7610 H         1 UNK         0.0000 
     39 H39         0.8740    3.1721   -2.8641 H         1 UNK         0.0000 
     40 H40        -0.7285    3.3255   -3.4750 H         1 UNK         0.0000 
     41 H41        -1.6454    3.3813   -1.1046 H         1 UNK         0.0000 
     42 H42        -0.7960    4.7350   -1.7513 H         1 UNK         0.0000 
     43 H43         0.1897    4.8655    0.2658 H         1 UNK         0.0000 
     44 H44         1.3568    3.8929   -0.5229 H         1 UNK         0.0000 
     45 H45        -2.4383    3.7597    2.6197 H         1 UNK         0.0000 
     46 H46        -3.0630    3.1744    1.0718 H         1 UNK         0.0000 
     47 H47        -1.9806    4.5695    1.1197 H         1 UNK         0.0000 
     48 H48        -2.8114   -0.9279   -1.6690 H         1 UNK         0.0000 
@<TRIPOS>BOND
     1    1    2 nc   
     2    1    6 nc   
     3    1   14 nc   
     4    1   16 nc   
     5    1   24 nc   
     6    1   26 nc   
     7    2    3 2    
     8    3    4 1    
     9    3    5 am   BACKBONE|DICT|INTERRES
    10    4   30 1    
    11    4   28 1    
    12    4   29 1    
    13    5    6 1    
    14    5    7 1    
    15    7   31 1    
    16    7    8 1    
    17    7   32 1    
    18    8   34 1    
    19    8    9 1    
    20    8   33 1    
    21    9   10 1    
    22    9   35 1    
    23    9   36 1    
    24   10   11 1    
    25   10   15 1    
    26   10   12 1    
    27   12   13 am   BACKBONE|DICT|INTERRES
    28   12   37 1    
    29   13   14 2    
    30   13   18 1    
    31   15   16 1    
    32   15   17 1    
    33   15   48 1    
    34   17   18 1    
    35   17   38 1    
    36   18   19 1    
    37   18   20 1    
    38   20   21 1    
    39   20   39 1    
    40   20   40 1    
    41   21   41 1    
    42   21   22 1    
    43   21   42 1    
    44   22   43 1    
    45   22   23 1    
    46   22   44 1    
    47   23   24 1    
    48   23   25 am   BACKBONE|DICT|INTERRES
    49   25   27 1    
    50   25   26 2    
    51   27   45 1    
    52   27   46 1    
    53   27   47 1    
@<TRIPOS>SUBSTRUCTURE
     1 UNK         1 GROUP             0       ****    0 ROOT    
