@<TRIPOS>MOLECULE
099_c1
89   93    1
SMALL
USER_CHARGES


@<TRIPOS>ATOM
      1 Fe1         0.0268   -0.2224    0.0403 Fe        1 UNK         0.0000 
      2 O2          5.0085    1.9811   -4.5685 O.2       1 UNK         0.0000 
      3 C3          4.1148    2.7955   -4.3995 C.2       1 UNK         0.0000 
      4 O4          4.2843    4.1447   -4.4786 O.3       1 UNK         0.0000 
      5 C5          2.6812    2.3909   -4.0243 C.3       1 UNK         0.0000 
      6 C6          2.6888    1.5729   -2.7074 C.3       1 UNK         0.0000 
      7 C7          1.4061    0.8910   -2.1779 C.2       1 UNK         0.0000 
      8 O8          1.4617    0.2386   -1.1283 O.co2     1 UNK         0.0000 
      9 N9          0.1164    0.9940   -2.6187 N.am      1 UNK         0.0000 
     10 O10        -0.8290    0.4046   -1.8588 O.co2     1 UNK         0.0000 
     11 C11        -0.4019    1.6078   -3.8570 C.3       1 UNK         0.0000 
     12 C12        -0.7501    3.1227   -3.8296 C.3       1 UNK         0.0000 
     13 C13        -1.4444    3.7184   -2.5776 C.3       1 UNK         0.0000 
     14 C14        -0.5643    4.6380   -1.7008 C.3       1 UNK         0.0000 
     15 N15         0.3155    3.9149   -0.7837 N.am      1 UNK         0.0000 
     16 C16         1.2209    4.5172    0.0085 C.2       1 UNK         0.0000 
     17 O17         1.4664    5.7164   -0.0689 O.2       1 UNK         0.0000 
     18 C18         1.9667    3.6692    1.0555 C.3       1 UNK         0.0000 
     19 C19         1.0876    3.1213    2.2232 C.3       1 UNK         0.0000 
     20 C20         0.2633    1.9061    1.8148 C.2       1 UNK         0.0000 
     21 O21         0.4539    1.3132    0.7577 O.co2     1 UNK         0.0000 
     22 N22        -0.6550    1.2439    2.5423 N.am      1 UNK         0.0000 
     23 O23        -1.1263    0.1262    1.9547 O.co2     1 UNK         0.0000 
     24 C24        -0.9486    1.4649    3.9655 C.3       1 UNK         0.0000 
     25 C25         0.1057    0.8105    4.8786 C.3       1 UNK         0.0000 
     26 C26        -0.2741    0.7512    6.3761 C.3       1 UNK         0.0000 
     27 C27         0.6533   -0.1712    7.2120 C.3       1 UNK         0.0000 
     28 C28         0.2156   -1.6546    7.3006 C.3       1 UNK         0.0000 
     29 N29        -0.0508   -2.2770    6.0009 N.am      1 UNK         0.0000 
     30 C30         0.8730   -2.6871    5.1223 C.2       1 UNK         0.0000 
     31 O31         2.0769   -2.6607    5.3588 O.2       1 UNK         0.0000 
     32 C32         0.3316   -3.1347    3.7558 C.3       1 UNK         0.0000 
     33 C33         1.3543   -3.1530    2.5690 C.3       1 UNK         0.0000 
     34 C34         0.8083   -2.4607    1.3164 C.2       1 UNK         0.0000 
     35 O35         1.1561   -1.3374    0.9358 O.co2     1 UNK         0.0000 
     36 N36        -0.2600   -2.8899    0.6130 N.am      1 UNK         0.0000 
     37 O37        -0.7867   -2.0278   -0.2615 O.co2     1 UNK         0.0000 
     38 C38        -0.9317   -4.1845    0.7763 C.3       1 UNK         0.0000 
     39 C39        -0.7950   -5.0978   -0.4552 C.3       1 UNK         0.0000 
     40 C40        -1.5223   -6.4469   -0.2713 C.3       1 UNK         0.0000 
     41 C41        -1.2531   -7.4568   -1.4033 C.3       1 UNK         0.0000 
     42 C42        -1.7654   -6.9883   -2.7794 C.3       1 UNK         0.0000 
     43 N43        -1.4935   -8.0758   -3.8314 N.4       1 UNK         0.0000 
     44 H44        -1.9623   -8.9352   -3.5812 H         1 UNK         0.0000 
     45 H45        -1.8311   -7.7790   -4.7361 H         1 UNK         0.0000 
     46 H46        -0.5027   -8.2584   -3.9030 H         1 UNK         0.0000 
     47 H47         2.3543    1.7869   -4.8720 H         1 UNK         0.0000 
     48 H48         2.1195    3.3180   -3.9413 H         1 UNK         0.0000 
     49 H49         3.0162    2.2327   -1.8969 H         1 UNK         0.0000 
     50 H50         3.4193    0.7664   -2.7978 H         1 UNK         0.0000 
     51 H51         0.2548    1.3990   -4.6967 H         1 UNK         0.0000 
     52 H52        -1.3220    1.0808   -4.1301 H         1 UNK         0.0000 
     53 H53        -1.4051    3.2990   -4.6852 H         1 UNK         0.0000 
     54 H54         0.1169    3.7257   -4.0765 H         1 UNK         0.0000 
     55 H55        -2.2622    4.3481   -2.9385 H         1 UNK         0.0000 
     56 H56        -1.9392    2.9501   -1.9800 H         1 UNK         0.0000 
     57 H57         0.0493    5.2770   -2.3373 H         1 UNK         0.0000 
     58 H58        -1.2013    5.3266   -1.1356 H         1 UNK         0.0000 
     59 H59         0.1384    2.9287   -0.6916 H         1 UNK         0.0000 
     60 H60         2.7164    4.3363    1.4845 H         1 UNK         0.0000 
     61 H61         2.5957    2.9061    0.5999 H         1 UNK         0.0000 
     62 H62         1.7779    2.7369    2.9744 H         1 UNK         0.0000 
     63 H63         0.5246    3.8984    2.7356 H         1 UNK         0.0000 
     64 H64        -1.0405    2.5231    4.1997 H         1 UNK         0.0000 
     65 H65        -1.9318    1.0414    4.1846 H         1 UNK         0.0000 
     66 H66         0.2954   -0.1880    4.4962 H         1 UNK         0.0000 
     67 H67         1.0565    1.3403    4.7867 H         1 UNK         0.0000 
     68 H68        -0.2356    1.7594    6.7995 H         1 UNK         0.0000 
     69 H69        -1.3096    0.4276    6.4975 H         1 UNK         0.0000 
     70 H70         0.7203    0.2131    8.2318 H         1 UNK         0.0000 
     71 H71         1.6780   -0.1188    6.8377 H         1 UNK         0.0000 
     72 H72        -0.7283   -1.7111    7.8463 H         1 UNK         0.0000 
     73 H73         0.9453   -2.2435    7.8646 H         1 UNK         0.0000 
     74 H74        -1.0136   -2.3160    5.7069 H         1 UNK         0.0000 
     75 H75        -0.4968   -2.4559    3.5268 H         1 UNK         0.0000 
     76 H76        -0.1663   -4.0991    3.8509 H         1 UNK         0.0000 
     77 H77         2.2767   -2.6414    2.8575 H         1 UNK         0.0000 
     78 H78         1.6926   -4.1646    2.3462 H         1 UNK         0.0000 
     79 H79        -1.9838   -3.9996    1.0069 H         1 UNK         0.0000 
     80 H80        -0.5675   -4.7358    1.6415 H         1 UNK         0.0000 
     81 H81        -1.1812   -4.5673   -1.3260 H         1 UNK         0.0000 
     82 H82         0.2664   -5.2759   -0.6363 H         1 UNK         0.0000 
     83 H83        -1.2062   -6.8989    0.6741 H         1 UNK         0.0000 
     84 H84        -2.5978   -6.2850   -0.1729 H         1 UNK         0.0000 
     85 H85        -0.1814   -7.6631   -1.4479 H         1 UNK         0.0000 
     86 H86        -1.7235   -8.4064   -1.1391 H         1 UNK         0.0000 
     87 H87        -2.8468   -6.8277   -2.7935 H         1 UNK         0.0000 
     88 H88        -1.2540   -6.0952   -3.1476 H         1 UNK         0.0000 
     89 H89         3.4776    4.6149   -4.2812 H         1 UNK         0.0000 
@<TRIPOS>BOND
     1    1    8 nc   
     2    1   10 nc   
     3    1   21 nc   
     4    1   23 nc   
     5    1   35 nc   
     6    1   37 nc   
     7    2    3 2    
     8    3    5 1    
     9    3    4 1    
    10    4   89 1    
    11    5   48 1    
    12    5    6 1    
    13    5   47 1    
    14    6   49 1    
    15    6    7 1    
    16    6   50 1    
    17    7    8 2    
    18    7    9 am   BACKBONE|DICT|INTERRES
    19    9   10 1    
    20    9   11 1    
    21   11   12 1    
    22   11   51 1    
    23   11   52 1    
    24   12   13 1    
    25   12   53 1    
    26   12   54 1    
    27   13   56 1    
    28   13   14 1    
    29   13   55 1    
    30   14   58 1    
    31   14   15 1    
    32   14   57 1    
    33   15   59 1    
    34   15   16 am   BACKBONE|DICT|INTERRES
    35   16   18 1    
    36   16   17 2    
    37   18   60 1    
    38   18   19 1    
    39   18   61 1    
    40   19   63 1    
    41   19   62 1    
    42   19   20 1    
    43   20   21 2    
    44   20   22 am   BACKBONE|DICT|INTERRES
    45   22   24 1    
    46   22   23 1    
    47   24   65 1    
    48   24   64 1    
    49   24   25 1    
    50   25   26 1    
    51   25   66 1    
    52   25   67 1    
    53   26   69 1    
    54   26   68 1    
    55   26   27 1    
    56   27   28 1    
    57   27   70 1    
    58   27   71 1    
    59   28   73 1    
    60   28   72 1    
    61   28   29 1    
    62   29   30 am   BACKBONE|DICT|INTERRES
    63   29   74 1    
    64   30   31 2    
    65   30   32 1    
    66   32   76 1    
    67   32   33 1    
    68   32   75 1    
    69   33   77 1    
    70   33   34 1    
    71   33   78 1    
    72   34   36 am   BACKBONE|DICT|INTERRES
    73   34   35 2    
    74   36   38 1    
    75   36   37 1    
    76   38   79 1    
    77   38   80 1    
    78   38   39 1    
    79   39   40 1    
    80   39   81 1    
    81   39   82 1    
    82   40   84 1    
    83   40   83 1    
    84   40   41 1    
    85   41   86 1    
    86   41   42 1    
    87   41   85 1    
    88   42   87 1    
    89   42   43 1    
    90   42   88 1    
    91   43   44 1    
    92   43   45 1    
    93   43   46 1    
@<TRIPOS>SUBSTRUCTURE
     1 UNK         1 GROUP             0       ****    0 ROOT    
