@<TRIPOS>MOLECULE
015_r1_c1
107   111    1
SMALL
USER_CHARGES


@<TRIPOS>ATOM
      1 Fe1        -0.3183   -1.4629   -0.1326 Fe        1 UNK         0.0000 
      2 C2         -2.5680    8.9252   -2.2299 C.3       1 UNK         0.0000 
      3 C3         -2.4071    7.4039   -2.2007 C.3       1 UNK         0.0000 
      4 C4         -3.6722    6.6361   -1.7182 C.3       1 UNK         0.0000 
      5 H5         -3.9362    6.9794   -0.6933 H         1 UNK         0.0000 
      6 C6         -4.8747    6.9173   -2.6353 C.3       1 UNK         0.0000 
      7 C7         -3.4363    5.1006   -1.6765 C.3       1 UNK         0.0000 
      8 C8         -2.3564    4.6728   -0.6722 C.3       1 UNK         0.0000 
      9 C9         -2.0923    3.1579   -0.7076 C.3       1 UNK         0.0000 
     10 C10        -0.9038    2.8344    0.2039 C.3       1 UNK         0.0000 
     11 C11        -0.3367    1.4564    0.0111 C.2       1 UNK         0.0000 
     12 O12        -0.8227    0.5118   -0.6042 O.co2     1 UNK         0.0000 
     13 N13         0.8446    1.1082    0.3760 N.am      1 UNK         0.0000 
     14 O14         0.9758   -0.0598   -0.2144 O.co2     1 UNK         0.0000 
     15 C15         1.8814    1.7611    1.1485 C.3       1 UNK         0.0000 
     16 C16         1.4774    1.9054    2.6240 C.3       1 UNK         0.0000 
     17 C17         2.7315    2.1384    3.4801 C.3       1 UNK         0.0000 
     18 C18         2.4929    2.2744    4.9937 C.3       1 UNK         0.0000 
     19 C19         1.6716    1.1505    5.6516 C.3       1 UNK         0.0000 
     20 N20         2.1155   -0.1766    5.2436 N.am      1 UNK         0.0000 
     21 C21         1.2551   -1.1007    4.7227 C.2       1 UNK         0.0000 
     22 O22         0.0606   -0.8459    4.6417 O.2       1 UNK         0.0000 
     23 C23         1.7679   -2.4458    4.2418 C.3       1 UNK         0.0000 
     24 C24         0.6536   -3.3830    3.7267 C.3       1 UNK         0.0000 
     25 C25        -0.0915   -2.7777    2.5561 C.2       1 UNK         0.0000 
     26 O26         0.3880   -2.5524    1.4740 O.co2     1 UNK         0.0000 
     27 N27        -1.3318   -2.4398    2.4947 N.am      1 UNK         0.0000 
     28 O28        -1.4881   -2.0072    1.2412 O.co2     1 UNK         0.0000 
     29 C29        -2.4025   -2.7548    3.4203 C.3       1 UNK         0.0000 
     30 C30        -3.0187   -4.0697    2.9696 C.3       1 UNK         0.0000 
     31 C31        -4.2863   -4.4329    3.7282 C.3       1 UNK         0.0000 
     32 C32        -4.9686   -5.7090    3.1945 C.3       1 UNK         0.0000 
     33 C33        -5.4556   -5.6184    1.7296 C.3       1 UNK         0.0000 
     34 N34        -4.3887   -5.8369    0.7586 N.am      1 UNK         0.0000 
     35 C35        -3.9989   -4.9237   -0.1799 C.2       1 UNK         0.0000 
     36 O36        -4.4966   -3.8058   -0.2019 O.2       1 UNK         0.0000 
     37 C37        -2.9681   -5.3170   -1.2167 C.3       1 UNK         0.0000 
     38 C38        -2.4994   -4.1698   -2.1369 C.3       1 UNK         0.0000 
     39 C39        -1.2916   -3.4219   -1.5972 C.2       1 UNK         0.0000 
     40 O40        -1.1573   -2.2585   -1.1964 O.co2     1 UNK         0.0000 
     41 N41        -0.1115   -3.7003   -1.7336 N.am      1 UNK         0.0000 
     42 O42         0.1945   -2.4112   -1.4959 O.co2     1 UNK         0.0000 
     43 C43         0.5843   -4.7151   -2.4970 C.3       1 UNK         0.0000 
     44 C44         0.6570   -4.3552   -3.9803 C.3       1 UNK         0.0000 
     45 C45         1.4057   -5.4518   -4.7406 C.3       1 UNK         0.0000 
     46 C46         1.4879   -5.1324   -6.2331 C.3       1 UNK         0.0000 
     47 C47         2.2338   -6.2442   -6.9797 C.3       1 UNK         0.0000 
     48 N48         2.3128   -5.9501   -8.4088 N.4       1 UNK         0.0000 
     49 H49         2.8295   -5.0538   -8.5621 H         1 UNK         0.0000 
     50 H50         1.3510   -5.8781   -8.8133 H         1 UNK         0.0000 
     51 H51         2.8257   -6.7247   -8.8882 H         1 UNK         0.0000 
     52 H52        -1.6049    9.3885   -2.5341 H         1 UNK         0.0000 
     53 H53        -2.8382    9.3032   -1.2213 H         1 UNK         0.0000 
     54 H54        -3.3335    9.2418   -2.9657 H         1 UNK         0.0000 
     55 H55        -2.1165    7.0544   -3.2157 H         1 UNK         0.0000 
     56 H56        -1.5624    7.2118   -1.5111 H         1 UNK         0.0000 
     57 H57        -5.1450    7.9920   -2.6292 H         1 UNK         0.0000 
     58 H58        -4.6537    6.6040   -3.6784 H         1 UNK         0.0000 
     59 H59        -5.7674    6.3621   -2.2770 H         1 UNK         0.0000 
     60 H60        -3.1555    4.7511   -2.6951 H         1 UNK         0.0000 
     61 H61        -4.3814    4.5927   -1.3830 H         1 UNK         0.0000 
     62 H62        -1.4035    5.1684   -0.9406 H         1 UNK         0.0000 
     63 H63        -2.6468    4.9857    0.3546 H         1 UNK         0.0000 
     64 H64        -2.9907    2.5757   -0.4095 H         1 UNK         0.0000 
     65 H65        -1.8168    2.8866   -1.7513 H         1 UNK         0.0000 
     66 H66        -1.1358    3.0268    1.2725 H         1 UNK         0.0000 
     67 H67        -0.0816    3.5202   -0.0969 H         1 UNK         0.0000 
     68 H68         2.7693    1.0921    1.1017 H         1 UNK         0.0000 
     69 H69         2.1704    2.7378    0.7057 H         1 UNK         0.0000 
     70 H70         0.7321    2.7179    2.7495 H         1 UNK         0.0000 
     71 H71         1.0192    0.9510    2.9479 H         1 UNK         0.0000 
     72 H72         3.4109    1.2700    3.3283 H         1 UNK         0.0000 
     73 H73         3.2643    3.0496    3.1303 H         1 UNK         0.0000 
     74 H74         3.4993    2.3026    5.4667 H         1 UNK         0.0000 
     75 H75         1.9899    3.2401    5.2170 H         1 UNK         0.0000 
     76 H76         0.6019    1.3099    5.3980 H         1 UNK         0.0000 
     77 H77         1.7648    1.2553    6.7538 H         1 UNK         0.0000 
     78 H78         3.1112   -0.4210    5.3566 H         1 UNK         0.0000 
     79 H79         2.5093   -2.2753    3.4317 H         1 UNK         0.0000 
     80 H80         2.2825   -2.9505    5.0874 H         1 UNK         0.0000 
     81 H81        -0.0280   -3.5926    4.5737 H         1 UNK         0.0000 
     82 H82         1.0912   -4.3534    3.4099 H         1 UNK         0.0000 
     83 H83        -2.0508   -2.8239    4.4686 H         1 UNK         0.0000 
     84 H84        -3.1561   -1.9382    3.3800 H         1 UNK         0.0000 
     85 H85        -2.2714   -4.8901    3.0469 H         1 UNK         0.0000 
     86 H86        -3.2752   -3.9091    1.9236 H         1 UNK         0.0000 
     87 H87        -5.0089   -3.5905    3.6520 H         1 UNK         0.0000 
     88 H88        -4.0359   -4.5784    4.8018 H         1 UNK         0.0000 
     89 H89        -5.8689   -5.8453    3.8327 H         1 UNK         0.0000 
     90 H90        -4.3246   -6.6050    3.3314 H         1 UNK         0.0000 
     91 H91        -6.1975   -6.4299    1.5675 H         1 UNK         0.0000 
     92 H92        -5.9866   -4.6542    1.5769 H         1 UNK         0.0000 
     93 H93        -3.9270   -6.7599    0.7673 H         1 UNK         0.0000 
     94 H94        -2.0815   -5.8009   -0.7509 H         1 UNK         0.0000 
     95 H95        -3.4767   -6.0856   -1.8379 H         1 UNK         0.0000 
     96 H96        -2.1607   -4.6377   -3.0819 H         1 UNK         0.0000 
     97 H97        -3.3323   -3.4945   -2.4245 H         1 UNK         0.0000 
     98 H98         1.6173   -4.8050   -2.0971 H         1 UNK         0.0000 
     99 H99         0.0771   -5.6949   -2.3537 H         1 UNK         0.0000 
    100 H100       -0.3654   -4.2503   -4.3972 H         1 UNK         0.0000 
    101 H101        1.1889   -3.3858   -4.0983 H         1 UNK         0.0000 
    102 H102        0.8726   -6.4190   -4.6034 H         1 UNK         0.0000 
    103 H103        2.4344   -5.5490   -4.3270 H         1 UNK         0.0000 
    104 H104        2.0224   -4.1675   -6.3753 H         1 UNK         0.0000 
    105 H105        0.4593   -5.0377   -6.6457 H         1 UNK         0.0000 
    106 H106        3.2628   -6.3432   -6.5671 H         1 UNK         0.0000 
    107 H107        1.7024   -7.2113   -6.8330 H         1 UNK         0.0000 
@<TRIPOS>BOND
     1    1   12 nc   
     2    1   14 nc   
     3    1   26 nc   
     4    1   28 nc   
     5    1   40 nc   
     6    1   42 nc   
     7    2    3 1    
     8    2   53 1    
     9    2   52 1    
    10    2   54 1    
    11    3    4 1    
    12    3   56 1    
    13    3   55 1    
    14    4    7 1    
    15    4    5 1    
    16    4    6 1    
    17    6   57 1    
    18    6   59 1    
    19    6   58 1    
    20    7   61 1    
    21    7    8 1    
    22    7   60 1    
    23    8   63 1    
    24    8    9 1    
    25    8   62 1    
    26    9   64 1    
    27    9   10 1    
    28    9   65 1    
    29   10   66 1    
    30   10   11 1    
    31   10   67 1    
    32   11   13 am   BACKBONE|DICT|INTERRES
    33   11   12 2    
    34   13   15 1    
    35   13   14 1    
    36   15   16 1    
    37   15   68 1    
    38   15   69 1    
    39   16   70 1    
    40   16   71 1    
    41   16   17 1    
    42   17   18 1    
    43   17   72 1    
    44   17   73 1    
    45   18   75 1    
    46   18   74 1    
    47   18   19 1    
    48   19   77 1    
    49   19   20 1    
    50   19   76 1    
    51   20   78 1    
    52   20   21 am   BACKBONE|DICT|INTERRES
    53   21   22 2    
    54   21   23 1    
    55   23   80 1    
    56   23   24 1    
    57   23   79 1    
    58   24   81 1    
    59   24   25 1    
    60   24   82 1    
    61   25   27 am   BACKBONE|DICT|INTERRES
    62   25   26 2    
    63   27   29 1    
    64   27   28 1    
    65   29   83 1    
    66   29   30 1    
    67   29   84 1    
    68   30   85 1    
    69   30   31 1    
    70   30   86 1    
    71   31   88 1    
    72   31   32 1    
    73   31   87 1    
    74   32   90 1    
    75   32   89 1    
    76   32   33 1    
    77   33   34 1    
    78   33   91 1    
    79   33   92 1    
    80   34   93 1    
    81   34   35 am   BACKBONE|DICT|INTERRES
    82   35   36 2    
    83   35   37 1    
    84   37   94 1    
    85   37   38 1    
    86   37   95 1    
    87   38   39 1    
    88   38   96 1    
    89   38   97 1    
    90   39   40 2    
    91   39   41 am   BACKBONE|DICT|INTERRES
    92   41   42 1    
    93   41   43 1    
    94   43   99 1    
    95   43   98 1    
    96   43   44 1    
    97   44   45 1    
    98   44  100 1    
    99   44  101 1    
   100   45  102 1    
   101   45  103 1    
   102   45   46 1    
   103   46   47 1    
   104   46  104 1    
   105   46  105 1    
   106   47  107 1    
   107   47  106 1    
   108   47   48 1    
   109   48   49 1    
   110   48   50 1    
   111   48   51 1    
@<TRIPOS>SUBSTRUCTURE
     1 UNK         1 GROUP             0       ****    0 ROOT    
