@<TRIPOS>MOLECULE
260_7101_c1
94   99    1
SMALL
USER_CHARGES


@<TRIPOS>ATOM
      1 Fe1        -0.0076    0.1330    0.0270 Fe        1 UNK         0.0000 
      2 O2          0.4844   -1.2281   -1.4858 O.co2     1 UNK         0.0000 
      3 C3         -0.3739   -1.5837   -2.3024 C.2       1 UNK         0.0000 
      4 C4         -0.0951   -2.5498   -3.4609 C.3       1 UNK         0.0000 
      5 C5          1.2367   -3.3282   -3.2909 C.3       1 UNK         0.0000 
      6 H6          2.0055   -2.5735   -3.0727 H         1 UNK         0.0000 
      7 C7          1.7327   -3.9964   -4.5925 C.3       1 UNK         0.0000 
      8 O8          1.2702   -4.1851   -2.1354 O.3       1 UNK         0.0000 
      9 C9          0.4904   -5.2828   -1.9639 C.2       1 UNK         0.0000 
     10 O10        -0.2903   -5.7251   -2.8018 O.2       1 UNK         0.0000 
     11 C11         0.7439   -5.9730   -0.6088 C.3       1 UNK         0.0000 
     12 H12         1.8230   -6.0119   -0.4196 H         1 UNK         0.0000 
     13 N13         0.3203   -7.4043   -0.8281 N.4       1 UNK         0.0000 
     14 H14        -0.6581   -7.4319   -1.0663 H         1 UNK         0.0000 
     15 H15         0.4920   -7.9553   -0.0036 H         1 UNK         0.0000 
     16 H16         0.8353   -7.7769   -1.6116 H         1 UNK         0.0000 
     17 C17         0.0130   -5.3072    0.5984 C.3       1 UNK         0.0000 
     18 C18         0.4726   -3.8755    0.9084 C.3       1 UNK         0.0000 
     19 C19        -0.2598   -3.0794    2.0368 C.3       1 UNK         0.0000 
     20 N20        -0.0387   -1.6110    1.9559 N.am      1 UNK         0.0000 
     21 O21         0.9613   -1.2221    1.1607 O.co2     1 UNK         0.0000 
     22 C22        -0.8393   -0.6460    2.4731 C.2       1 UNK         0.0000 
     23 O23        -0.6882    0.4405    1.9478 O.co2     1 UNK         0.0000 
     24 C24        -1.8962   -0.8092    3.5728 C.3       1 UNK         0.0000 
     25 C25        -1.6313    0.1176    4.7922 C.3       1 UNK         0.0000 
     26 H26        -2.5426    0.1217    5.3930 H         1 UNK         0.0000 
     27 C27        -0.5175   -0.4580    5.6736 C.3       1 UNK         0.0000 
     28 O28        -1.2371    1.4718    4.4806 O.3       1 UNK         0.0000 
     29 C29        -1.9639    2.5606    4.8604 C.2       1 UNK         0.0000 
     30 O30        -3.0637    2.5028    5.4010 O.2       1 UNK         0.0000 
     31 C31        -1.2009    3.8994    4.6715 C.3       1 UNK         0.0000 
     32 H32        -0.2052    3.7862    5.1065 H         1 UNK         0.0000 
     33 N33        -1.9198    4.8789    5.5687 N.4       1 UNK         0.0000 
     34 H34        -1.9788    4.4955    6.5044 H         1 UNK         0.0000 
     35 H35        -2.8630    4.9880    5.2166 H         1 UNK         0.0000 
     36 H36        -1.4474    5.7736    5.5740 H         1 UNK         0.0000 
     37 C37        -1.0744    4.4506    3.2216 C.3       1 UNK         0.0000 
     38 C38        -0.4460    3.4680    2.2365 C.3       1 UNK         0.0000 
     39 C39        -0.0215    3.9928    0.8445 C.3       1 UNK         0.0000 
     40 N40         0.3181    2.8679   -0.0403 N.am      1 UNK         0.0000 
     41 O41        -0.6583    2.0089   -0.2252 O.co2     1 UNK         0.0000 
     42 C42         1.5547    2.4613   -0.3503 C.2       1 UNK         0.0000 
     43 O43         1.6922    1.2349   -0.4659 O.co2     1 UNK         0.0000 
     44 C44         2.5625    3.4627   -0.8954 C.3       1 UNK         0.0000 
     45 C45         1.9957    4.1487   -2.1748 C.3       1 UNK         0.0000 
     46 H46         1.2137    4.8433   -1.8485 H         1 UNK         0.0000 
     47 C47         3.0681    4.9883   -2.8845 C.3       1 UNK         0.0000 
     48 O48         1.4270    3.1622   -3.0637 O.3       1 UNK         0.0000 
     49 C49         0.0754    3.1178   -3.3268 C.2       1 UNK         0.0000 
     50 O50        -0.6760    4.0730   -3.2219 O.2       1 UNK         0.0000 
     51 C51        -0.3971    1.7096   -3.7289 C.3       1 UNK         0.0000 
     52 H52        -0.0548    1.0261   -2.9548 H         1 UNK         0.0000 
     53 N53         0.4403    1.3727   -4.9324 N.4       1 UNK         0.0000 
     54 H54         1.4161    1.5059   -4.6963 H         1 UNK         0.0000 
     55 H55         0.2071    2.0112   -5.6749 H         1 UNK         0.0000 
     56 H56         0.2749    0.4340   -5.2500 H         1 UNK         0.0000 
     57 C57        -1.9329    1.5056   -3.9180 C.3       1 UNK         0.0000 
     58 C58        -2.4027    0.0467   -4.2374 C.3       1 UNK         0.0000 
     59 C59        -2.6891   -0.9102   -3.0468 C.3       1 UNK         0.0000 
     60 N60        -1.5831   -1.0380   -2.0746 N.am      1 UNK         0.0000 
     61 O61        -1.8000   -0.4287   -0.9268 O.co2     1 UNK         0.0000 
     62 H62        -0.9225   -3.2475   -3.5722 H         1 UNK         0.0000 
     63 H63        -0.0572   -1.9703   -4.3757 H         1 UNK         0.0000 
     64 H64         1.0753   -4.7926   -4.9331 H         1 UNK         0.0000 
     65 H65         2.7369   -4.4056   -4.4589 H         1 UNK         0.0000 
     66 H66         1.7901   -3.2564   -5.3915 H         1 UNK         0.0000 
     67 H67         0.1696   -5.9090    1.4988 H         1 UNK         0.0000 
     68 H68        -1.0624   -5.3049    0.4242 H         1 UNK         0.0000 
     69 H69         0.3449   -3.3093   -0.0082 H         1 UNK         0.0000 
     70 H70         1.5409   -3.8699    1.1462 H         1 UNK         0.0000 
     71 H71         0.0557   -3.4433    3.0164 H         1 UNK         0.0000 
     72 H72        -1.3364   -3.2811    1.9812 H         1 UNK         0.0000 
     73 H73        -2.0071   -1.8449    3.8819 H         1 UNK         0.0000 
     74 H74        -2.8651   -0.5481    3.1437 H         1 UNK         0.0000 
     75 H75        -0.4422    0.1103    6.6047 H         1 UNK         0.0000 
     76 H76        -0.7353   -1.4968    5.9370 H         1 UNK         0.0000 
     77 H77         0.4460   -0.4332    5.1529 H         1 UNK         0.0000 
     78 H78        -2.0576    4.7228    2.8451 H         1 UNK         0.0000 
     79 H79        -0.4823    5.3674    3.2332 H         1 UNK         0.0000 
     80 H80         0.4212    2.9670    2.6780 H         1 UNK         0.0000 
     81 H81        -1.2374    2.7369    2.0794 H         1 UNK         0.0000 
     82 H82         0.7848    4.7205    0.9471 H         1 UNK         0.0000 
     83 H83        -0.8312    4.5524    0.3716 H         1 UNK         0.0000 
     84 H84         2.8328    4.1975   -0.1336 H         1 UNK         0.0000 
     85 H85         3.4801    2.9271   -1.1333 H         1 UNK         0.0000 
     86 H86         3.8993    4.3734   -3.2393 H         1 UNK         0.0000 
     87 H87         3.4808    5.7345   -2.1972 H         1 UNK         0.0000 
     88 H88         2.6380    5.5367   -3.7259 H         1 UNK         0.0000 
     89 H89        -2.2755    2.1603   -4.7203 H         1 UNK         0.0000 
     90 H90        -2.4563    1.8415   -3.0188 H         1 UNK         0.0000 
     91 H91        -1.7375   -0.4410   -4.9461 H         1 UNK         0.0000 
     92 H92        -3.3526    0.1081   -4.7778 H         1 UNK         0.0000 
     93 H93        -2.9943   -1.9035   -3.3831 H         1 UNK         0.0000 
     94 H94        -3.5705   -0.5025   -2.5311 H         1 UNK         0.0000 
@<TRIPOS>BOND
     1    1    2 nc   
     2    1   21 nc   
     3    1   23 nc   
     4    1   41 nc   
     5    1   43 nc   
     6    1   61 nc   
     7    2    3 2    
     8    3   60 am   BACKBONE|DICT|INTERRES
     9    3    4 1    
    10    4    5 1    
    11    4   62 1    
    12    4   63 1    
    13    5    6 1    
    14    5    8 1    
    15    5    7 1    
    16    7   65 1    
    17    7   64 1    
    18    7   66 1    
    19    8    9 1    
    20    9   11 1    
    21    9   10 2    
    22   11   12 1    
    23   11   17 1    
    24   11   13 1    
    25   13   15 1    
    26   13   14 1    
    27   13   16 1    
    28   17   18 1    
    29   17   67 1    
    30   17   68 1    
    31   18   70 1    
    32   18   19 1    
    33   18   69 1    
    34   19   71 1    
    35   19   20 1    
    36   19   72 1    
    37   20   22 am   BACKBONE|DICT|INTERRES
    38   20   21 1    
    39   22   23 2    
    40   22   24 1    
    41   24   73 1    
    42   24   25 1    
    43   24   74 1    
    44   25   26 1    
    45   25   27 1    
    46   25   28 1    
    47   27   76 1    
    48   27   75 1    
    49   27   77 1    
    50   28   29 1    
    51   29   30 2    
    52   29   31 1    
    53   31   32 1    
    54   31   33 1    
    55   31   37 1    
    56   33   34 1    
    57   33   35 1    
    58   33   36 1    
    59   37   79 1    
    60   37   38 1    
    61   37   78 1    
    62   38   80 1    
    63   38   39 1    
    64   38   81 1    
    65   39   82 1    
    66   39   40 1    
    67   39   83 1    
    68   40   41 1    
    69   40   42 am   BACKBONE|DICT|INTERRES
    70   42   43 2    
    71   42   44 1    
    72   44   84 1    
    73   44   45 1    
    74   44   85 1    
    75   45   46 1    
    76   45   47 1    
    77   45   48 1    
    78   47   87 1    
    79   47   86 1    
    80   47   88 1    
    81   48   49 1    
    82   49   50 2    
    83   49   51 1    
    84   51   52 1    
    85   51   53 1    
    86   51   57 1    
    87   53   54 1    
    88   53   55 1    
    89   53   56 1    
    90   57   90 1    
    91   57   58 1    
    92   57   89 1    
    93   58   59 1    
    94   58   91 1    
    95   58   92 1    
    96   59   94 1    
    97   59   60 1    
    98   59   93 1    
    99   60   61 1    
@<TRIPOS>SUBSTRUCTURE
     1 UNK         1 GROUP             0       ****    0 ROOT    
