@<TRIPOS>MOLECULE
229_c1
115   124    1
SMALL
USER_CHARGES


@<TRIPOS>ATOM
      1 Fe1         0.5726    1.2138    0.5775 Fe        1 UNK         0.0000 
      2 O2          1.8391    2.2202   -1.3092 O.co2     1 UNK         0.0000 
      3 C3          1.0025    2.3788   -2.2649 C.ar      1 UNK         0.0000 
      4 C4         -0.2946    1.9129   -2.0556 C.ar      1 UNK         0.0000 
      5 O5         -0.4859    1.1426   -1.0671 O.co2     1 UNK         0.0000 
      6 C6         -1.3176    2.2836   -2.9302 C.ar      1 UNK         0.0000 
      7 C7         -1.0497    3.0627   -4.0503 C.ar      1 UNK         0.0000 
      8 C8          0.2680    3.3953   -4.3464 C.ar      1 UNK         0.0000 
      9 C9          1.3093    2.9806   -3.5000 C.ar      1 UNK         0.0000 
     10 C10         2.6892    2.8707   -4.0824 C.2       1 UNK         0.0000 
     11 O11         3.4790    3.8130   -4.1664 O.2       1 UNK         0.0000 
     12 N12         2.9610    1.6974   -4.6950 N.am      1 UNK         0.0000 
     13 C13         1.9873    0.8593   -5.4494 C.3       1 UNK         0.0000 
     14 H14         1.1596    1.4774   -5.7879 H         1 UNK         0.0000 
     15 C15         2.6514    0.3499   -6.7627 C.3       1 UNK         0.0000 
     16 O16         3.9300   -0.2432   -6.5715 O.3       1 UNK         0.0000 
     17 C17         1.3974   -0.3178   -4.6550 C.2       1 UNK         0.0000 
     18 O18         2.0312   -1.3686   -4.4892 O.2       1 UNK         0.0000 
     19 O19         0.0351   -0.1802   -4.4735 O.3       1 UNK         0.0000 
     20 C20        -0.8167   -1.3137   -4.2452 C.3       1 UNK         0.0000 
     21 C21        -1.4454   -1.5303   -2.8371 C.3       1 UNK         0.0000 
     22 H22        -1.9192   -2.5110   -2.8840 H         1 UNK         0.0000 
     23 N23        -0.4553   -1.6445   -1.7671 N.am      1 UNK         0.0000 
     24 C24         0.3947   -2.6586   -1.5301 C.2       1 UNK         0.0000 
     25 O25         0.5209   -3.6248   -2.2964 O.2       1 UNK         0.0000 
     26 C26         0.8531   -2.7153   -0.0910 C.ar      1 UNK         0.0000 
     27 C27         0.6500   -3.9230    0.5984 C.ar      1 UNK         0.0000 
     28 C28         0.3750   -3.9379    1.9725 C.ar      1 UNK         0.0000 
     29 C29         0.2642   -2.7109    2.6459 C.ar      1 UNK         0.0000 
     30 C30         0.5950   -1.5314    1.9753 C.ar      1 UNK         0.0000 
     31 O31         0.3088   -0.3876    2.4125 O.co2     1 UNK         0.0000 
     32 C32         1.0767   -1.5472    0.6660 C.ar      1 UNK         0.0000 
     33 O33         1.4619   -0.4290    0.1883 O.co2     1 UNK         0.0000 
     34 C34         0.0978   -5.2818    2.6512 C.3       1 UNK         0.0000 
     35 H35         0.1480   -6.0271    1.8556 H         1 UNK         0.0000 
     36 O36        -1.2222   -5.3727    3.2104 O.3       1 UNK         0.0000 
     37 C37        -1.5870   -6.6889    3.6410 C.3       1 UNK         0.0000 
     38 H38        -1.5417   -7.3614    2.7818 H         1 UNK         0.0000 
     39 C39        -3.0667   -6.6437    4.0952 C.3       1 UNK         0.0000 
     40 O40        -3.5380   -7.9352    4.4655 O.3       1 UNK         0.0000 
     41 C41        -0.6054   -7.1640    4.7631 C.3       1 UNK         0.0000 
     42 H42        -0.7162   -6.4728    5.6025 H         1 UNK         0.0000 
     43 O43        -0.9102   -8.4723    5.2766 O.3       1 UNK         0.0000 
     44 C44         0.8670   -7.0742    4.2643 C.3       1 UNK         0.0000 
     45 H45         1.5350   -7.2682    5.1045 H         1 UNK         0.0000 
     46 O46         1.1530   -8.0997    3.3185 O.3       1 UNK         0.0000 
     47 C47         1.1726   -5.6620    3.7080 C.3       1 UNK         0.0000 
     48 H48         2.1461   -5.6742    3.2159 H         1 UNK         0.0000 
     49 O49         1.3092   -4.7221    4.7710 O.3       1 UNK         0.0000 
     50 C50        -2.6492   -0.6223   -2.4544 C.2       1 UNK         0.0000 
     51 O51        -3.5231   -0.3352   -3.2859 O.2       1 UNK         0.0000 
     52 O52        -2.7617   -0.2790   -1.1133 O.3       1 UNK         0.0000 
     53 C53        -3.8030    0.5571   -0.5580 C.3       1 UNK         0.0000 
     54 C54        -3.5144    2.0873   -0.2467 C.3       1 UNK         0.0000 
     55 H55        -2.4840    2.3503   -0.4409 H         1 UNK         0.0000 
     56 C56        -4.3331    2.9959   -1.1946 C.2       1 UNK         0.0000 
     57 O57        -3.9234    3.9619   -1.7988 O.2       1 UNK         0.0000 
     58 O58        -5.6478    2.6542   -1.2523 O.3       1 UNK         0.0000 
     59 N59        -3.8686    2.4777    1.1402 N.am      1 UNK         0.0000 
     60 C60        -3.4506    3.5443    1.8551 C.2       1 UNK         0.0000 
     61 O61        -4.3556    4.2133    2.3700 O.2       1 UNK         0.0000 
     62 C62        -1.9854    3.9551    2.0990 C.ar      1 UNK         0.0000 
     63 C63        -1.6929    5.2158    2.6608 C.ar      1 UNK         0.0000 
     64 C64        -0.3786    5.6307    2.9795 C.ar      1 UNK         0.0000 
     65 C65         0.6972    4.7759    2.6922 C.ar      1 UNK         0.0000 
     66 C66         0.4591    3.5294    2.1208 C.ar      1 UNK         0.0000 
     67 O67         1.3912    2.7265    1.7323 O.co2     1 UNK         0.0000 
     68 C68        -0.8707    3.1327    1.8676 C.ar      1 UNK         0.0000 
     69 O69        -0.9100    2.0137    1.3351 O.co2     1 UNK         0.0000 
     70 C70        -0.1452    7.0151    3.6128 C.3       1 UNK         0.0000 
     71 H71        -0.6301    7.7150    2.9281 H         1 UNK         0.0000 
     72 O72         1.2343    7.4208    3.5990 O.3       1 UNK         0.0000 
     73 C73         1.5659    8.7346    4.0787 C.3       1 UNK         0.0000 
     74 H74         1.4922    9.3747    3.1987 H         1 UNK         0.0000 
     75 C75         3.0556    8.7880    4.5064 C.3       1 UNK         0.0000 
     76 O76         3.3322    8.0753    5.7053 O.3       1 UNK         0.0000 
     77 C77         0.5281    9.3340    5.0783 C.3       1 UNK         0.0000 
     78 H78        -0.3237    9.7191    4.5129 H         1 UNK         0.0000 
     79 O79         1.0149   10.4838    5.7823 O.3       1 UNK         0.0000 
     80 C80        -0.0212    8.1692    5.9469 C.3       1 UNK         0.0000 
     81 H81         0.8390    7.6662    6.3869 H         1 UNK         0.0000 
     82 O82        -0.8182    8.5819    7.0590 O.3       1 UNK         0.0000 
     83 C83        -0.7982    7.1699    5.0324 C.3       1 UNK         0.0000 
     84 H84        -0.7983    6.2027    5.5412 H         1 UNK         0.0000 
     85 O85        -2.1734    7.5795    4.9078 O.3       1 UNK         0.0000 
     86 H86        -2.3247    1.9731   -2.7470 H         1 UNK         0.0000 
     87 H87        -1.8536    3.3336   -4.7139 H         1 UNK         0.0000 
     88 H88         0.4858    3.8852   -5.2803 H         1 UNK         0.0000 
     89 H89         3.9236    1.5855   -4.9542 H         1 UNK         0.0000 
     90 H90         2.0200   -0.3911   -7.2602 H         1 UNK         0.0000 
     91 H91         2.7503    1.1813   -7.4655 H         1 UNK         0.0000 
     92 H92         3.8419   -0.8445   -5.8212 H         1 UNK         0.0000 
     93 H93        -0.2648   -2.2257   -4.4896 H         1 UNK         0.0000 
     94 H94        -1.6086   -1.2819   -4.9923 H         1 UNK         0.0000 
     95 H95        -0.2883   -0.7868   -1.2322 H         1 UNK         0.0000 
     96 H96         0.5487   -4.8356    0.0296 H         1 UNK         0.0000 
     97 H97        -0.1115   -2.6410    3.6512 H         1 UNK         0.0000 
     98 H98        -3.1860   -5.9533    4.9322 H         1 UNK         0.0000 
     99 H99        -3.6908   -6.2623    3.2831 H         1 UNK         0.0000 
    100 H100       -2.7915   -8.3789    4.9009 H         1 UNK         0.0000 
    101 H101       -0.3870   -8.6098    6.0748 H         1 UNK         0.0000 
    102 H102        0.5424   -8.8208    3.5038 H         1 UNK         0.0000 
    103 H103        1.3785   -3.8428    4.3538 H         1 UNK         0.0000 
    104 H104       -4.7056    0.4332   -1.1594 H         1 UNK         0.0000 
    105 H105       -4.0532    0.0763    0.3899 H         1 UNK         0.0000 
    106 H106       -4.8387    2.3035    1.3144 H         1 UNK         0.0000 
    107 H107       -2.5118    5.8857    2.8536 H         1 UNK         0.0000 
    108 H108        1.7161    5.0696    2.8812 H         1 UNK         0.0000 
    109 H109        3.6808    8.3893    3.7066 H         1 UNK         0.0000 
    110 H110        3.3566    9.8265    4.6532 H         1 UNK         0.0000 
    111 H111        4.2004    8.3234    6.0336 H         1 UNK         0.0000 
    112 H112        0.7596   11.2731    5.3033 H         1 UNK         0.0000 
    113 H113       -1.6876    8.7961    6.6969 H         1 UNK         0.0000 
    114 H114       -2.6323    6.8709    4.4391 H         1 UNK         0.0000 
    115 H115       -5.9555    3.3237   -1.8639 H         1 UNK         0.0000 
@<TRIPOS>BOND
     1    1    2 nc   
     2    1    5 nc   
     3    1   31 nc   
     4    1   33 nc   
     5    1   67 nc   
     6    1   69 nc   
     7    2    3 1    
     8    3    4 ar   
     9    3    9 ar   
    10    4    5 1    
    11    4    6 ar   
    12    6   86 1    
    13    6    7 ar   
    14    7    8 ar   
    15    7   87 1    
    16    8    9 ar   
    17    8   88 1    
    18    9   10 1    
    19   10   11 2    
    20   10   12 am   BACKBONE|DICT|INTERRES
    21   12   13 1    
    22   12   89 1    
    23   13   14 1    
    24   13   17 1    
    25   13   15 1    
    26   15   16 1    
    27   15   90 1    
    28   15   91 1    
    29   16   92 1    
    30   17   19 1    
    31   17   18 2    
    32   19   20 1    
    33   20   21 1    
    34   20   93 1    
    35   20   94 1    
    36   21   22 1    
    37   21   50 1    
    38   21   23 1    
    39   23   24 am   BACKBONE|DICT|INTERRES
    40   23   95 1    
    41   24   26 1    
    42   24   25 2    
    43   26   27 ar   
    44   26   32 ar   
    45   27   28 ar   
    46   27   96 1    
    47   28   34 1    
    48   28   29 ar   
    49   29   97 1    
    50   29   30 ar   
    51   30   31 1    
    52   30   32 ar   
    53   32   33 1    
    54   34   35 1    
    55   34   36 1    
    56   34   47 1    
    57   36   37 1    
    58   37   38 1    
    59   37   39 1    
    60   37   41 1    
    61   39   40 1    
    62   39   98 1    
    63   39   99 1    
    64   40  100 1    
    65   41   43 1    
    66   41   42 1    
    67   41   44 1    
    68   43  101 1    
    69   44   45 1    
    70   44   46 1    
    71   44   47 1    
    72   46  102 1    
    73   47   48 1    
    74   47   49 1    
    75   49  103 1    
    76   50   52 1    
    77   50   51 2    
    78   52   53 1    
    79   53   54 1    
    80   53  105 1    
    81   53  104 1    
    82   54   55 1    
    83   54   59 1    
    84   54   56 1    
    85   56   57 2    
    86   56   58 1    
    87   58  115 1    
    88   59  106 1    
    89   59   60 am   BACKBONE|DICT|INTERRES
    90   60   62 1    
    91   60   61 2    
    92   62   63 ar   
    93   62   68 ar   
    94   63   64 ar   
    95   63  107 1    
    96   64   70 1    
    97   64   65 ar   
    98   65  108 1    
    99   65   66 ar   
   100   66   67 1    
   101   66   68 ar   
   102   68   69 1    
   103   70   71 1    
   104   70   72 1    
   105   70   83 1    
   106   72   73 1    
   107   73   74 1    
   108   73   75 1    
   109   73   77 1    
   110   75  110 1    
   111   75   76 1    
   112   75  109 1    
   113   76  111 1    
   114   77   78 1    
   115   77   79 1    
   116   77   80 1    
   117   79  112 1    
   118   80   81 1    
   119   80   82 1    
   120   80   83 1    
   121   82  113 1    
   122   83   84 1    
   123   83   85 1    
   124   85  114 1    
@<TRIPOS>SUBSTRUCTURE
     1 UNK         1 GROUP             0       ****    0 ROOT    
