@<TRIPOS>MOLECULE
024_r5_c1
49   56    1
SMALL
USER_CHARGES


@<TRIPOS>ATOM
      1 Fe1         0.0000    0.0000    0.0000 Fe        1 UNK         0.0000 
      2 O2         -0.0575   -1.9358   -0.0730 O.co2     1 UNK         0.0000 
      3 C3          0.9024   -2.7663    0.4312 C.ar      1 UNK         0.0000 
      4 C4          0.6024   -4.1343    0.5703 C.ar      1 UNK         0.0000 
      5 C5          1.5228   -5.0084    1.1356 C.ar      1 UNK         0.0000 
      6 C6          2.7515   -4.5144    1.5662 C.ar      1 UNK         0.0000 
      7 N7          3.0389   -3.1934    1.4332 N.ar      1 UNK         0.0000 
      8 C8          2.1774   -2.3021    0.8689 C.ar      1 UNK         0.0000 
      9 C9          2.5691   -0.8584    0.8453 C.2       1 UNK         0.0000 
     10 N10         2.1000    0.0000    0.0000 N.pl3     1 UNK         0.0000 
     11 S11         3.8973   -0.2563    1.8926 S.3       1 UNK         0.0000 
     12 C12         3.4152    1.4240    1.4221 C.3       1 UNK         0.0000 
     13 C13         2.6428    1.3453    0.0815 C.3       1 UNK         0.0000 
     14 C14         1.5321    2.3693    0.0955 C.2       1 UNK         0.0000 
     15 O15         0.2448    1.9358    0.0730 O.co2     1 UNK         0.0000 
     16 O16         1.7692    3.5594    0.1606 O.co2     1 UNK         0.0000 
     17 C17         3.5615    1.5666   -1.1303 C.3       1 UNK         0.0000 
     18 H18        -0.3658   -4.5163    0.2603 H         1 UNK         0.0000 
     19 H19         1.2796   -6.0568    1.2542 H         1 UNK         0.0000 
     20 H20         3.4753   -5.1831    2.0121 H         1 UNK         0.0000 
     21 H21         4.2561    2.1504    1.3749 H         1 UNK         0.0000 
     22 H22         2.7414    1.7103    2.2495 H         1 UNK         0.0000 
     23 H23         2.9733    1.4894   -2.0730 H         1 UNK         0.0000 
     24 H24         4.3702    0.8035   -1.1678 H         1 UNK         0.0000 
     25 H25         4.0285    2.5738   -1.1008 H         1 UNK         0.0000 
     26 O26         0.0575    0.0730    1.9358 O.co2     1 UNK         0.0000 
     27 C27        -0.9012   -0.4265    2.7683 C.ar      1 UNK         0.0000 
     28 C28        -0.5984   -0.5716    4.1332 C.ar      1 UNK         0.0000 
     29 C29        -1.5213   -1.1402    5.0045 C.ar      1 UNK         0.0000 
     30 C30        -2.7492   -1.5694    4.5111 C.ar      1 UNK         0.0000 
     31 N31        -3.0377   -1.4334    3.1897 N.ar      1 UNK         0.0000 
     32 C32        -2.1748   -0.8658    2.3008 C.ar      1 UNK         0.0000 
     33 C33        -2.5711   -0.8446    0.8595 C.2       1 UNK         0.0000 
     34 N34        -2.1000    0.0000    0.0000 N.pl3     1 UNK         0.0000 
     35 S35        -3.8959   -1.8934    0.2559 S.3       1 UNK         0.0000 
     36 C36        -3.4152   -1.4211   -1.4231 C.3       1 UNK         0.0000 
     37 C37        -2.6459   -0.0849   -1.3427 C.3       1 UNK         0.0000 
     38 C38        -1.5305   -0.0962   -2.3655 C.2       1 UNK         0.0000 
     39 O39        -0.2448   -0.0730   -1.9358 O.co2     1 UNK         0.0000 
     40 O40        -1.7724   -0.1761   -3.5600 O.co2     1 UNK         0.0000 
     41 C41        -3.5618    1.1321   -1.5694 C.3       1 UNK         0.0000 
     42 H42         0.3670   -0.2619    4.5148 H         1 UNK         0.0000 
     43 H43        -1.2771   -1.2620    6.0520 H         1 UNK         0.0000 
     44 H44        -3.4713   -2.0226    5.1765 H         1 UNK         0.0000 
     45 H45        -4.2553   -1.3770   -2.1496 H         1 UNK         0.0000 
     46 H46        -2.7409   -2.2526   -1.7097 H         1 UNK         0.0000 
     47 H47        -2.9697    2.0716   -1.4926 H         1 UNK         0.0000 
     48 H48        -4.3684    1.1666   -0.8067 H         1 UNK         0.0000 
     49 H49        -4.0251    1.0976   -2.5782 H         1 UNK         0.0000 
@<TRIPOS>BOND
     1    1    2 nc   
     2    1   10 nc   
     3    1   15 nc   
     4    1   26 nc   
     5    1   34 nc   
     6    1   39 nc   
     7    2    3 1    
     8    3    4 ar   
     9    3    8 ar   
    10    4    5 ar   
    11    4   18 1    
    12    5   19 1    
    13    5    6 ar   
    14    6   20 1    
    15    6    7 ar   
    16    7    8 ar   
    17    8    9 1    
    18    9   11 1    
    19    9   10 2    
    20   10   13 1    
    21   11   12 1    
    22   12   22 1    
    23   12   13 1    
    24   12   21 1    
    25   13   17 1    
    26   13   14 1    
    27   14   16 2    
    28   14   15 1    
    29   17   25 1    
    30   17   23 1    
    31   17   24 1    
    32   26   27 1    
    33   27   28 ar   
    34   27   32 ar   
    35   28   42 1    
    36   28   29 ar   
    37   29   43 1    
    38   29   30 ar   
    39   30   44 1    
    40   30   31 ar   
    41   31   32 ar   
    42   32   33 1    
    43   33   34 2    
    44   33   35 1    
    45   34   37 1    
    46   35   36 1    
    47   36   37 1    
    48   36   45 1    
    49   36   46 1    
    50   37   41 1    
    51   37   38 1    
    52   38   39 1    
    53   38   40 2    
    54   41   47 1    
    55   41   48 1    
    56   41   49 1    
@<TRIPOS>SUBSTRUCTURE
     1 UNK         1 GROUP             0       ****    0 ROOT    
