@<TRIPOS>MOLECULE
111_c1
94   99    1
SMALL
USER_CHARGES


@<TRIPOS>ATOM
      1 Fe1        -0.0934   -0.7490   -0.6281 Fe        1 UNK         0.0000 
      2 O2          1.9953   -0.8817    0.7488 O.co2     1 UNK         0.0000 
      3 N3          1.6434   -0.2182    1.8718 N.am      1 UNK         0.0000 
      4 C4          2.6632   -0.4123    2.9300 C.3       1 UNK         0.0000 
      5 C5          2.9313   -1.9018    3.2621 C.3       1 UNK         0.0000 
      6 C6          1.6444   -2.7395    3.4303 C.3       1 UNK         0.0000 
      7 C7          1.8834   -4.1169    4.0561 C.3       1 UNK         0.0000 
      8 C8          0.5832   -4.9370    4.2147 C.3       1 UNK         0.0000 
      9 C9          0.4159   -6.1340    3.2540 C.3       1 UNK         0.0000 
     10 N10         0.1230   -5.8489    1.8419 N.am      1 UNK         0.0000 
     11 C11        -1.0542   -5.4083    1.3754 C.2       1 UNK         0.0000 
     12 O12        -1.9228   -4.9369    2.1005 O.2       1 UNK         0.0000 
     13 C13        -1.2971   -5.6000   -0.1320 C.3       1 UNK         0.0000 
     14 C14        -2.4219   -4.7632   -0.8030 C.3       1 UNK         0.0000 
     15 C15        -2.0394   -3.2855   -1.0463 C.2       1 UNK         0.0000 
     16 O16        -1.7234   -2.6212   -0.0484 O.co2     1 UNK         0.0000 
     17 N17        -1.9536   -2.7267   -2.3020 N.am      1 UNK         0.0000 
     18 O18        -1.5224   -1.4864   -2.5633 O.co2     1 UNK         0.0000 
     19 C19        -2.2865   -3.4139   -3.5683 C.3       1 UNK         0.0000 
     20 C20        -1.0123   -3.9293   -4.2884 C.3       1 UNK         0.0000 
     21 C21        -0.9776   -3.6904   -5.8159 C.3       1 UNK         0.0000 
     22 C22         0.1920   -2.8197   -6.3456 C.3       1 UNK         0.0000 
     23 C23         0.1799   -1.3190   -5.9565 C.3       1 UNK         0.0000 
     24 N24         0.9900   -1.0589   -4.7686 N.am      1 UNK         0.0000 
     25 C25         1.1277    0.0729   -4.0721 C.2       1 UNK         0.0000 
     26 O26         1.5430   -0.0339   -2.9178 O.co2     1 UNK         0.0000 
     27 C27         0.7991    1.4674   -4.6695 C.3       1 UNK         0.0000 
     28 C28        -0.3429    2.3512   -4.0555 C.3       1 UNK         0.0000 
     29 C29        -0.5125    2.4079   -2.5307 C.2       1 UNK         0.0000 
     30 O30        -0.6118    1.3807   -1.8726 O.co2     1 UNK         0.0000 
     31 N31        -0.6040    3.5240   -1.8177 N.am      1 UNK         0.0000 
     32 C32        -0.5514    4.9462   -2.1030 C.3       1 UNK         0.0000 
     33 C33        -0.5293    5.5885   -0.7049 C.3       1 UNK         0.0000 
     34 C34        -0.5988    7.1123   -0.5698 C.3       1 UNK         0.0000 
     35 C35        -0.9395    7.5444    0.8832 C.3       1 UNK         0.0000 
     36 C36         0.1961    7.5033    1.9391 C.3       1 UNK         0.0000 
     37 C37         0.9204    6.1717    2.2462 C.3       1 UNK         0.0000 
     38 N38         0.0461    5.0460    2.6158 N.am      1 UNK         0.0000 
     39 C39         0.3133    3.7572    2.3415 C.2       1 UNK         0.0000 
     40 O40         1.2077    3.4202    1.5699 O.2       1 UNK         0.0000 
     41 C41        -0.5612    2.6790    3.0070 C.3       1 UNK         0.0000 
     42 C42         0.1600    1.3256    3.3122 C.3       1 UNK         0.0000 
     43 C43         0.4669    0.4679    2.0664 C.2       1 UNK         0.0000 
     44 O44        -0.4304    0.4312    1.2004 O.co2     1 UNK         0.0000 
     45 H45         2.4442    0.0809    3.8792 H         1 UNK         0.0000 
     46 H46         3.5929    0.0469    2.5852 H         1 UNK         0.0000 
     47 H47         3.5223   -2.3497    2.4619 H         1 UNK         0.0000 
     48 H48         3.5593   -1.9573    4.1488 H         1 UNK         0.0000 
     49 H49         1.1672   -2.8807    2.4595 H         1 UNK         0.0000 
     50 H50         0.9320   -2.1915    4.0491 H         1 UNK         0.0000 
     51 H51         2.3295   -3.9486    5.0383 H         1 UNK         0.0000 
     52 H52         2.6292   -4.6767    3.4886 H         1 UNK         0.0000 
     53 H53        -0.3014   -4.2971    4.1980 H         1 UNK         0.0000 
     54 H54         0.5901   -5.3583    5.2192 H         1 UNK         0.0000 
     55 H55        -0.3340   -6.8245    3.6475 H         1 UNK         0.0000 
     56 H56         1.3496   -6.6998    3.2626 H         1 UNK         0.0000 
     57 H57         0.8119   -6.1548    1.1740 H         1 UNK         0.0000 
     58 H58        -1.6295   -6.6371   -0.1778 H         1 UNK         0.0000 
     59 H59        -0.3798   -5.5917   -0.7170 H         1 UNK         0.0000 
     60 H60        -2.6144   -5.2640   -1.7467 H         1 UNK         0.0000 
     61 H61        -3.3631   -4.8470   -0.2601 H         1 UNK         0.0000 
     62 H62        -2.8050   -2.6873   -4.2066 H         1 UNK         0.0000 
     63 H63        -3.0250   -4.2124   -3.4736 H         1 UNK         0.0000 
     64 H64        -0.1154   -3.5066   -3.8388 H         1 UNK         0.0000 
     65 H65        -0.9402   -4.9966   -4.0816 H         1 UNK         0.0000 
     66 H66        -1.9247   -3.2741   -6.1620 H         1 UNK         0.0000 
     67 H67        -0.9103   -4.6642   -6.3069 H         1 UNK         0.0000 
     68 H68         1.1425   -3.2769   -6.0653 H         1 UNK         0.0000 
     69 H69         0.1653   -2.8954   -7.4339 H         1 UNK         0.0000 
     70 H70        -0.8499   -0.9817   -5.8189 H         1 UNK         0.0000 
     71 H71         0.5796   -0.7379   -6.7866 H         1 UNK         0.0000 
     72 H72         1.3340   -1.8821   -4.3043 H         1 UNK         0.0000 
     73 H73         0.6209    1.3932   -5.7453 H         1 UNK         0.0000 
     74 H74         1.7201    2.0497   -4.6242 H         1 UNK         0.0000 
     75 H75        -1.2861    1.9901   -4.4653 H         1 UNK         0.0000 
     76 H76        -0.2649    3.3605   -4.4554 H         1 UNK         0.0000 
     77 H77        -0.6914    3.3481   -0.8312 H         1 UNK         0.0000 
     78 H78        -1.4248    5.2856   -2.6633 H         1 UNK         0.0000 
     79 H79         0.3285    5.2432   -2.6762 H         1 UNK         0.0000 
     80 H80        -1.3581    5.1824   -0.1238 H         1 UNK         0.0000 
     81 H81         0.3855    5.2584   -0.2260 H         1 UNK         0.0000 
     82 H82        -1.3826    7.4895   -1.2285 H         1 UNK         0.0000 
     83 H83         0.3316    7.5776   -0.8996 H         1 UNK         0.0000 
     84 H84        -1.7983    6.9781    1.2493 H         1 UNK         0.0000 
     85 H85        -1.2892    8.5801    0.8448 H         1 UNK         0.0000 
     86 H86        -0.2076    7.8921    2.8758 H         1 UNK         0.0000 
     87 H87         0.9591    8.2249    1.6451 H         1 UNK         0.0000 
     88 H88         1.5938    6.3277    3.0917 H         1 UNK         0.0000 
     89 H89         1.5675    5.9170    1.4043 H         1 UNK         0.0000 
     90 H90        -0.7443    5.2708    3.1992 H         1 UNK         0.0000 
     91 H91        -1.4724    2.5087    2.4423 H         1 UNK         0.0000 
     92 H92        -0.8993    3.0856    3.9581 H         1 UNK         0.0000 
     93 H93         0.9856    1.4960    3.9999 H         1 UNK         0.0000 
     94 H94        -0.5446    0.7240    3.8911 H         1 UNK         0.0000 
@<TRIPOS>BOND
     1    1    2 nc   
     2    1   16 nc   
     3    1   18 nc   
     4    1   26 nc   
     5    1   30 nc   
     6    1   44 nc   
     7    2    3 1    
     8    3   43 am   BACKBONE|DICT|INTERRES
     9    3    4 1    
    10    4    5 1    
    11    4   45 1    
    12    4   46 1    
    13    5    6 1    
    14    5   48 1    
    15    5   47 1    
    16    6   50 1    
    17    6    7 1    
    18    6   49 1    
    19    7    8 1    
    20    7   51 1    
    21    7   52 1    
    22    8   53 1    
    23    8   54 1    
    24    8    9 1    
    25    9   56 1    
    26    9   55 1    
    27    9   10 1    
    28   10   11 am   BACKBONE|DICT|INTERRES
    29   10   57 1    
    30   11   12 2    
    31   11   13 1    
    32   13   14 1    
    33   13   58 1    
    34   13   59 1    
    35   14   61 1    
    36   14   15 1    
    37   14   60 1    
    38   15   16 2    
    39   15   17 am   BACKBONE|DICT|INTERRES
    40   17   18 1    
    41   17   19 1    
    42   19   20 1    
    43   19   62 1    
    44   19   63 1    
    45   20   65 1    
    46   20   64 1    
    47   20   21 1    
    48   21   22 1    
    49   21   66 1    
    50   21   67 1    
    51   22   68 1    
    52   22   23 1    
    53   22   69 1    
    54   23   24 1    
    55   23   70 1    
    56   23   71 1    
    57   24   72 1    
    58   24   25 am   BACKBONE|DICT|INTERRES
    59   25   26 2    
    60   25   27 1    
    61   27   74 1    
    62   27   28 1    
    63   27   73 1    
    64   28   29 1    
    65   28   75 1    
    66   28   76 1    
    67   29   31 am   BACKBONE|DICT|INTERRES
    68   29   30 2    
    69   31   77 1    
    70   31   32 1    
    71   32   33 1    
    72   32   78 1    
    73   32   79 1    
    74   33   34 1    
    75   33   81 1    
    76   33   80 1    
    77   34   35 1    
    78   34   82 1    
    79   34   83 1    
    80   35   84 1    
    81   35   36 1    
    82   35   85 1    
    83   36   37 1    
    84   36   86 1    
    85   36   87 1    
    86   37   38 1    
    87   37   88 1    
    88   37   89 1    
    89   38   39 am   BACKBONE|DICT|INTERRES
    90   38   90 1    
    91   39   40 2    
    92   39   41 1    
    93   41   42 1    
    94   41   92 1    
    95   41   91 1    
    96   42   94 1    
    97   42   93 1    
    98   42   43 1    
    99   43   44 2    
@<TRIPOS>SUBSTRUCTURE
     1 UNK         1 GROUP             0       ****    0 ROOT    
