@<TRIPOS>MOLECULE
106_c2
112   117    1
SMALL
USER_CHARGES


@<TRIPOS>ATOM
      1 Fe1        -0.1058   -3.7741    0.0612 Fe        1 UNK         0.0000 
      2 O2         -2.2295   -5.9171   -4.6379 O.2       1 UNK         0.0000 
      3 C3         -1.1596   -5.3892   -4.9274 C.2       1 UNK         0.0000 
      4 C4         -1.0751   -3.8747   -5.1380 C.3       1 UNK         0.0000 
      5 C5         -1.6704   -2.9921   -3.9955 C.3       1 UNK         0.0000 
      6 C6         -0.8551   -2.9128   -2.6923 C.2       1 UNK         0.0000 
      7 O7         -1.2279   -3.4091   -1.6268 O.co2     1 UNK         0.0000 
      8 N8          0.3794   -2.3560   -2.5994 N.am      1 UNK         0.0000 
      9 O9          1.0123   -2.4963   -1.4304 O.co2     1 UNK         0.0000 
     10 C10         1.1332   -1.7032   -3.6887 C.3       1 UNK         0.0000 
     11 C11         1.7939   -0.3283   -3.3943 C.3       1 UNK         0.0000 
     12 C12         0.9333    0.9237   -3.7029 C.3       1 UNK         0.0000 
     13 C13         1.7681    2.2274   -3.6008 C.3       1 UNK         0.0000 
     14 C14         1.2872    3.3961   -4.4841 C.3       1 UNK         0.0000 
     15 N15         0.2403    4.2365   -3.8949 N.am      1 UNK         0.0000 
     16 C16         0.3117    5.5775   -3.8235 C.2       1 UNK         0.0000 
     17 O17         1.3120    6.2108   -4.1517 O.2       1 UNK         0.0000 
     18 C18        -0.9385    6.3449   -3.3814 C.3       1 UNK         0.0000 
     19 C19        -0.6998    7.4066   -2.2719 C.3       1 UNK         0.0000 
     20 C20        -0.6016    6.8533   -0.8350 C.2       1 UNK         0.0000 
     21 O21        -0.9121    5.6763   -0.6282 O.2       1 UNK         0.0000 
     22 N22        -0.2118    7.6760    0.1807 N.am      1 UNK         0.0000 
     23 O23         0.2131    8.9799   -0.1435 O.3       1 UNK         0.0000 
     24 C24         0.0658    7.2515    1.5564 C.3       1 UNK         0.0000 
     25 C25         1.2676    6.2902    1.6757 C.3       1 UNK         0.0000 
     26 C26         1.2768    5.5064    3.0024 C.3       1 UNK         0.0000 
     27 C27         2.0734    4.1963    2.8773 C.3       1 UNK         0.0000 
     28 C28         1.9255    3.2431    4.0770 C.3       1 UNK         0.0000 
     29 N29         2.1112    1.8697    3.6315 N.am      1 UNK         0.0000 
     30 C30         1.6770    0.7726    4.2585 C.2       1 UNK         0.0000 
     31 O31         1.2452    0.7778    5.4093 O.2       1 UNK         0.0000 
     32 C32         1.6990   -0.4966    3.4058 C.3       1 UNK         0.0000 
     33 C33         0.7388   -1.6341    3.8645 C.3       1 UNK         0.0000 
     34 C34         0.1047   -2.4348    2.7240 C.2       1 UNK         0.0000 
     35 O35         0.4735   -2.3547    1.5518 O.co2     1 UNK         0.0000 
     36 N36        -0.8634   -3.3482    2.9177 N.am      1 UNK         0.0000 
     37 O37        -1.3713   -3.9474    1.8521 O.co2     1 UNK         0.0000 
     38 C38        -1.2088   -3.9195    4.2305 C.3       1 UNK         0.0000 
     39 C39        -0.3374   -5.1366    4.6467 C.3       1 UNK         0.0000 
     40 C40        -0.7344   -6.4891    4.0138 C.3       1 UNK         0.0000 
     41 C41         0.2442   -7.6369    4.3531 C.3       1 UNK         0.0000 
     42 N42         1.3867   -7.6833    3.4389 N.am      1 UNK         0.0000 
     43 C43         1.3952   -8.3898    2.3004 C.2       1 UNK         0.0000 
     44 O44         0.4934   -9.1579    1.9798 O.2       1 UNK         0.0000 
     45 C45         2.5995   -8.1916    1.3686 C.3       1 UNK         0.0000 
     46 C46         2.8380   -6.7599    0.7903 C.3       1 UNK         0.0000 
     47 C47         1.6257   -5.8914    0.3946 C.2       1 UNK         0.0000 
     48 O48         1.6169   -4.6528    0.4834 O.co2     1 UNK         0.0000 
     49 N49         0.4492   -6.3202   -0.1199 N.am      1 UNK         0.0000 
     50 O50        -0.4632   -5.3781   -0.2918 O.co2     1 UNK         0.0000 
     51 C51         0.2601   -7.5123   -0.9536 C.3       1 UNK         0.0000 
     52 C52         0.6535   -7.2023   -2.4121 C.3       1 UNK         0.0000 
     53 C53        -0.1120   -8.0214   -3.4662 C.3       1 UNK         0.0000 
     54 C54         0.1411   -7.5328   -4.9115 C.3       1 UNK         0.0000 
     55 N55        -0.0241   -6.0827   -5.0978 N.am      1 UNK         0.0000 
     56 H56        -1.7078   -3.7241   -6.0086 H         1 UNK         0.0000 
     57 H57        -0.0933   -3.5394   -5.4812 H         1 UNK         0.0000 
     58 H58        -1.7595   -1.9653   -4.3535 H         1 UNK         0.0000 
     59 H59        -2.7060   -3.2649   -3.8040 H         1 UNK         0.0000 
     60 H60         1.9240   -2.3953   -3.9823 H         1 UNK         0.0000 
     61 H61         0.5380   -1.5932   -4.5897 H         1 UNK         0.0000 
     62 H62         2.1701   -0.2811   -2.3722 H         1 UNK         0.0000 
     63 H63         2.6766   -0.2669   -4.0336 H         1 UNK         0.0000 
     64 H64         0.5283    0.8407   -4.7155 H         1 UNK         0.0000 
     65 H65         0.0684    0.9684   -3.0366 H         1 UNK         0.0000 
     66 H66         2.7912    2.0127   -3.9210 H         1 UNK         0.0000 
     67 H67         1.8640    2.5391   -2.5592 H         1 UNK         0.0000 
     68 H68         0.9183    3.0114   -5.4349 H         1 UNK         0.0000 
     69 H69         2.1641    3.9767   -4.7799 H         1 UNK         0.0000 
     70 H70        -0.5879    3.7884   -3.5405 H         1 UNK         0.0000 
     71 H71        -1.8076    5.7205   -3.1764 H         1 UNK         0.0000 
     72 H72        -1.2283    6.8905   -4.2800 H         1 UNK         0.0000 
     73 H73         0.1179    8.0790   -2.5384 H         1 UNK         0.0000 
     74 H74        -1.5845    8.0416   -2.2426 H         1 UNK         0.0000 
     75 H75        -0.4771    9.5494    0.2133 H         1 UNK         0.0000 
     76 H76         0.2024    8.1069    2.2215 H         1 UNK         0.0000 
     77 H77        -0.8370    6.7569    1.9179 H         1 UNK         0.0000 
     78 H78         1.2244    5.5758    0.8516 H         1 UNK         0.0000 
     79 H79         2.2077    6.8281    1.5408 H         1 UNK         0.0000 
     80 H80         1.6563    6.1301    3.8141 H         1 UNK         0.0000 
     81 H81         0.2479    5.2545    3.2706 H         1 UNK         0.0000 
     82 H82         3.1286    4.4093    2.7007 H         1 UNK         0.0000 
     83 H83         1.7252    3.6820    1.9774 H         1 UNK         0.0000 
     84 H84         2.5985    3.5044    4.8955 H         1 UNK         0.0000 
     85 H85         0.9120    3.3258    4.4773 H         1 UNK         0.0000 
     86 H86         2.5212    1.7452    2.7193 H         1 UNK         0.0000 
     87 H87         1.4588   -0.1941    2.3829 H         1 UNK         0.0000 
     88 H88         2.7215   -0.8711    3.3579 H         1 UNK         0.0000 
     89 H89         1.2799   -2.3304    4.5026 H         1 UNK         0.0000 
     90 H90        -0.0675   -1.2382    4.4797 H         1 UNK         0.0000 
     91 H91        -2.2606   -4.2127    4.2314 H         1 UNK         0.0000 
     92 H92        -1.1425   -3.1710    5.0199 H         1 UNK         0.0000 
     93 H93        -0.4287   -5.2556    5.7294 H         1 UNK         0.0000 
     94 H94         0.7197   -4.9375    4.4619 H         1 UNK         0.0000 
     95 H95        -0.8383   -6.3897    2.9296 H         1 UNK         0.0000 
     96 H96        -1.7301   -6.7647    4.3652 H         1 UNK         0.0000 
     97 H97        -0.2971   -8.5865    4.3672 H         1 UNK         0.0000 
     98 H98         0.6209   -7.5287    5.3711 H         1 UNK         0.0000 
     99 H99         2.2097   -7.1579    3.6806 H         1 UNK         0.0000 
    100 H100        3.4995   -8.5494    1.8639 H         1 UNK         0.0000 
    101 H101        2.5111   -8.9011    0.5494 H         1 UNK         0.0000 
    102 H102        3.5526   -6.8000   -0.0318 H         1 UNK         0.0000 
    103 H103        3.3861   -6.1976    1.5479 H         1 UNK         0.0000 
    104 H104        0.7792   -8.3987   -0.6096 H         1 UNK         0.0000 
    105 H105       -0.7994   -7.7839   -0.8915 H         1 UNK         0.0000 
    106 H106        0.4763   -6.1434   -2.6060 H         1 UNK         0.0000 
    107 H107        1.7282   -7.3347   -2.5436 H         1 UNK         0.0000 
    108 H108       -1.1830   -7.9651   -3.2669 H         1 UNK         0.0000 
    109 H109        0.1485   -9.0767   -3.3782 H         1 UNK         0.0000 
    110 H110       -0.4886   -8.0705   -5.6228 H         1 UNK         0.0000 
    111 H111        1.1785   -7.7531   -5.1760 H         1 UNK         0.0000 
    112 H112        0.8062   -5.5499   -5.3034 H         1 UNK         0.0000 
@<TRIPOS>BOND
     1    1    7 nc   
     2    1    9 nc   
     3    1   35 nc   
     4    1   37 nc   
     5    1   48 nc   
     6    1   50 nc   
     7    2    3 2    
     8    3    4 1    
     9    3   55 am   BACKBONE|DICT|INTERRES
    10    4    5 1    
    11    4   56 1    
    12    4   57 1    
    13    5   59 1    
    14    5    6 1    
    15    5   58 1    
    16    6    7 2    
    17    6    8 am   BACKBONE|DICT|INTERRES
    18    8    9 1    
    19    8   10 1    
    20   10   11 1    
    21   10   60 1    
    22   10   61 1    
    23   11   62 1    
    24   11   12 1    
    25   11   63 1    
    26   12   13 1    
    27   12   65 1    
    28   12   64 1    
    29   13   67 1    
    30   13   14 1    
    31   13   66 1    
    32   14   15 1    
    33   14   68 1    
    34   14   69 1    
    35   15   16 am   BACKBONE|DICT|INTERRES
    36   15   70 1    
    37   16   18 1    
    38   16   17 2    
    39   18   71 1    
    40   18   19 1    
    41   18   72 1    
    42   19   74 1    
    43   19   20 1    
    44   19   73 1    
    45   20   21 2    
    46   20   22 am   BACKBONE|DICT|INTERRES
    47   22   24 1    
    48   22   23 1    
    49   23   75 1    
    50   24   25 1    
    51   24   77 1    
    52   24   76 1    
    53   25   26 1    
    54   25   78 1    
    55   25   79 1    
    56   26   81 1    
    57   26   80 1    
    58   26   27 1    
    59   27   28 1    
    60   27   82 1    
    61   27   83 1    
    62   28   85 1    
    63   28   84 1    
    64   28   29 1    
    65   29   30 am   BACKBONE|DICT|INTERRES
    66   29   86 1    
    67   30   31 2    
    68   30   32 1    
    69   32   33 1    
    70   32   87 1    
    71   32   88 1    
    72   33   90 1    
    73   33   89 1    
    74   33   34 1    
    75   34   35 2    
    76   34   36 am   BACKBONE|DICT|INTERRES
    77   36   38 1    
    78   36   37 1    
    79   38   39 1    
    80   38   92 1    
    81   38   91 1    
    82   39   93 1    
    83   39   40 1    
    84   39   94 1    
    85   40   41 1    
    86   40   96 1    
    87   40   95 1    
    88   41   98 1    
    89   41   42 1    
    90   41   97 1    
    91   42   99 1    
    92   42   43 am   BACKBONE|DICT|INTERRES
    93   43   44 2    
    94   43   45 1    
    95   45  100 1    
    96   45   46 1    
    97   45  101 1    
    98   46  103 1    
    99   46   47 1    
   100   46  102 1    
   101   47   48 2    
   102   47   49 am   BACKBONE|DICT|INTERRES
   103   49   50 1    
   104   49   51 1    
   105   51  105 1    
   106   51  104 1    
   107   51   52 1    
   108   52   53 1    
   109   52  106 1    
   110   52  107 1    
   111   53  108 1    
   112   53  109 1    
   113   53   54 1    
   114   54   55 1    
   115   54  110 1    
   116   54  111 1    
   117   55  112 1    
@<TRIPOS>SUBSTRUCTURE
     1 UNK         1 GROUP             0       ****    0 ROOT    
