@<TRIPOS>MOLECULE
228_c1
68   75    1
SMALL
USER_CHARGES


@<TRIPOS>ATOM
      1 O1         14.8436   14.5303   -8.6083 O.3       1 UNK         0.0000 
      2 C2         15.5996   13.3827   -8.9304 C.3       1 UNK         0.0000 
      3 H3         14.8537   12.6371   -9.2271 H         1 UNK         0.0000 
      4 C4         16.4142   12.7359   -7.7259 C.3       1 UNK         0.0000 
      5 H5         17.2013   13.4335   -7.4199 H         1 UNK         0.0000 
      6 C6         15.5889   12.4641   -6.4490 C.3       1 UNK         0.0000 
      7 O7         14.6101   11.4546   -6.6470 O.3       1 UNK         0.0000 
      8 O8         17.0825   11.5114   -8.1789 O.3       1 UNK         0.0000 
      9 C9         17.9485   11.5927   -9.3618 C.3       1 UNK         0.0000 
     10 H10        18.9478   11.7692   -8.9612 H         1 UNK         0.0000 
     11 C11        17.6356   12.8234  -10.3654 C.3       1 UNK         0.0000 
     12 H12        16.9409   12.1552  -10.7771 H         1 UNK         0.0000 
     13 O13        18.3227   12.9232  -11.5682 O.co2     1 UNK         0.0000 
     14 C14        16.4219   13.7815  -10.2177 C.3       1 UNK         0.0000 
     15 H15        16.8389   14.7883  -10.1224 H         1 UNK         0.0000 
     16 O16        15.6141   13.8193  -11.4073 O.co2     1 UNK         0.0000 
     17 C17        18.0842   10.2142  -10.1471 C.ar      1 UNK         0.0000 
     18 C18        19.2648    9.9628  -10.8821 C.ar      1 UNK         0.0000 
     19 C19        19.2095    9.9519  -12.3012 C.ar      1 UNK         0.0000 
     20 C20        17.9585   10.3112  -12.8786 C.ar      1 UNK         0.0000 
     21 O21        17.9177   11.1194  -13.8893 O.co2     1 UNK         0.0000 
     22 C22        16.7910   10.1400  -12.1036 C.ar      1 UNK         0.0000 
     23 O23        15.7492   10.8080  -12.3937 O.co2     1 UNK         0.0000 
     24 C24        16.9000    9.7540  -10.7575 C.ar      1 UNK         0.0000 
     25 C25        20.4665    9.7337  -13.1449 C.2       1 UNK         0.0000 
     26 O26        21.5474    9.3857  -12.6537 O.2       1 UNK         0.0000 
     27 N27        20.2234    9.8143  -14.4595 N.am      1 UNK         0.0000 
     28 C28        20.9444    9.5341  -15.7246 C.3       1 UNK         0.0000 
     29 H29        20.7446    8.4828  -15.9378 H         1 UNK         0.0000 
     30 C30        22.5121    9.6723  -15.7499 C.2       1 UNK         0.0000 
     31 O31        23.1124    8.5866  -15.9444 O.co2     1 UNK         0.0000 
     32 O32        22.9668   10.8329  -15.9159 O.co2     1 UNK         0.0000 
     33 C33        20.3293   10.3727  -16.8642 C.3       1 UNK         0.0000 
     34 O34        18.8974   10.3287  -16.8852 O.3       1 UNK         0.0000 
     35 C35        18.1992    9.4344  -17.6198 C.2       1 UNK         0.0000 
     36 O36        18.7381    8.5506  -18.3023 O.2       1 UNK         0.0000 
     37 C37        16.6581    9.6081  -17.5894 C.3       1 UNK         0.0000 
     38 H38        16.2368    8.8776  -16.9035 H         1 UNK         0.0000 
     39 C39        16.0576    9.3406  -19.0096 C.3       1 UNK         0.0000 
     40 O40        16.2995    8.0281  -19.5103 O.3       1 UNK         0.0000 
     41 N41        16.3235   10.9484  -17.0513 N.am      1 UNK         0.0000 
     42 C42        15.7118   12.0189  -17.5894 C.2       1 UNK         0.0000 
     43 O43        15.1158   12.0185  -18.6729 O.2       1 UNK         0.0000 
     44 C44        16.1000   13.3052  -16.9040 C.ar      1 UNK         0.0000 
     45 C45        16.2024   13.4306  -15.4948 C.ar      1 UNK         0.0000 
     46 O46        15.6058   12.6394  -14.6744 O.co2     1 UNK         0.0000 
     47 C47        17.0426   14.4316  -14.9842 C.ar      1 UNK         0.0000 
     48 O48        17.3893   14.4300  -13.7736 O.co2     1 UNK         0.0000 
     49 C49        17.6061   15.3970  -15.8102 C.ar      1 UNK         0.0000 
     50 C50        17.3613   15.3725  -17.1777 C.ar      1 UNK         0.0000 
     51 C51        16.6312   14.3206  -17.7211 C.ar      1 UNK         0.0000 
     52 H52        14.6867   14.8405   -9.5254 H         1 UNK         0.0000 
     53 H53        15.1097   13.3819   -6.1018 H         1 UNK         0.0000 
     54 H54        16.2607   12.1432   -5.6458 H         1 UNK         0.0000 
     55 H55        14.8418   11.0408   -7.4932 H         1 UNK         0.0000 
     56 H56        20.2243   10.1266  -10.4205 H         1 UNK         0.0000 
     57 H57        15.9825    9.8836  -10.1960 H         1 UNK         0.0000 
     58 H58        19.2891   10.2540  -14.5543 H         1 UNK         0.0000 
     59 H59        20.5957   11.4223  -16.7193 H         1 UNK         0.0000 
     60 H60        20.7444   10.0852  -17.8303 H         1 UNK         0.0000 
     61 H61        16.4543   10.0591  -19.7329 H         1 UNK         0.0000 
     62 H62        14.9779    9.4859  -18.9895 H         1 UNK         0.0000 
     63 H63        17.2538    7.8840  -19.3996 H         1 UNK         0.0000 
     64 H64        16.6089   11.1387  -16.0842 H         1 UNK         0.0000 
     65 H65        18.2591   16.1343  -15.3753 H         1 UNK         0.0000 
     66 H66        17.8211   16.1068  -17.8128 H         1 UNK         0.0000 
     67 H67        16.5592   14.2398  -18.7965 H         1 UNK         0.0000 
     68 Fe68       16.7513   12.6332  -12.9631 Fe        1 UNK         0.0000 
@<TRIPOS>BOND
     1    1   52 1    
     2    1    2 1    
     3    2    4 1    
     4    2    3 1    
     5    2   14 1    
     6    4    5 1    
     7    4    6 1    
     8    4    8 1    
     9    6    7 1    
    10    6   53 1    
    11    6   54 1    
    12    7   55 1    
    13    8    9 1    
    14    9   11 1    
    15    9   17 1    
    16    9   10 1    
    17   11   12 1    
    18   11   13 1    
    19   11   14 1    
    20   13   68 nc   
    21   14   16 1    
    22   14   15 1    
    23   16   68 nc   
    24   17   18 ar   
    25   17   24 ar   
    26   18   19 ar   
    27   18   56 1    
    28   19   20 ar   
    29   19   25 1    
    30   20   21 1    
    31   20   22 ar   
    32   21   68 nc   
    33   22   23 1    
    34   22   24 ar   
    35   23   68 nc   
    36   24   57 1    
    37   25   26 2    
    38   25   27 am   BACKBONE|DICT|INTERRES
    39   27   58 1    
    40   27   28 1    
    41   28   30 1    
    42   28   33 1    
    43   28   29 1    
    44   30   31 1    
    45   30   32 2    
    46   33   34 1    
    47   33   59 1    
    48   33   60 1    
    49   34   35 1    
    50   35   36 2    
    51   35   37 1    
    52   37   39 1    
    53   37   41 1    
    54   37   38 1    
    55   39   40 1    
    56   39   61 1    
    57   39   62 1    
    58   40   63 1    
    59   41   42 am   BACKBONE|DICT|INTERRES
    60   41   64 1    
    61   42   43 2    
    62   42   44 1    
    63   44   45 ar   
    64   44   51 ar   
    65   45   46 1    
    66   45   47 ar   
    67   46   68 nc   
    68   47   48 1    
    69   47   49 ar   
    70   48   68 nc   
    71   49   50 ar   
    72   49   65 1    
    73   50   51 ar   
    74   50   66 1    
    75   51   67 1    
@<TRIPOS>SUBSTRUCTURE
     1 UNK         1 GROUP             0       ****    0 ROOT    
