@<TRIPOS>MOLECULE
236_c2
105   114    1
SMALL
USER_CHARGES


@<TRIPOS>ATOM
      1 Fe1         0.0038    0.1065    0.1062 Fe        1 UNK         0.0000 
      2 C2          3.0467    0.7986   -3.1360 C.ar      1 UNK         0.0000 
      3 C3          2.5611    2.1164   -3.2074 C.ar      1 UNK         0.0000 
      4 C4          1.8412    2.6457   -2.1351 C.ar      1 UNK         0.0000 
      5 C5          1.6626    1.9017   -0.9700 C.ar      1 UNK         0.0000 
      6 O6          0.6623    2.1915   -0.2093 O.co2     1 UNK         0.0000 
      7 C7          2.3391    0.6820   -0.8245 C.ar      1 UNK         0.0000 
      8 O8          2.1732    0.0108    0.2467 O.co2     1 UNK         0.0000 
      9 C9          2.9182    0.0542   -1.9496 C.ar      1 UNK         0.0000 
     10 C10         2.8760   -1.4317   -1.9427 C.2       1 UNK         0.0000 
     11 O11         3.7775   -2.1380   -1.2019 O.3       1 UNK         0.0000 
     12 C12         3.1021   -3.2323   -0.6205 C.3       1 UNK         0.0000 
     13 H13         2.9928   -3.0133    0.4414 H         1 UNK         0.0000 
     14 C14         3.9256   -4.5187   -0.8193 C.3       1 UNK         0.0000 
     15 N15         1.8161   -2.0854   -2.2489 N.2       1 UNK         0.0000 
     16 C16         1.7603   -3.2280   -1.3702 C.3       1 UNK         0.0000 
     17 H17         1.6300   -4.1170   -1.9843 H         1 UNK         0.0000 
     18 C18         0.5226   -3.1348   -0.3857 C.2       1 UNK         0.0000 
     19 O19         0.1074   -2.0797    0.1459 O.co2     1 UNK         0.0000 
     20 N20        -0.1875   -4.2417   -0.0686 N.am      1 UNK         0.0000 
     21 C21        -0.2153   -5.5515   -0.7089 C.3       1 UNK         0.0000 
     22 C22        -1.3644   -6.4821   -0.1992 C.3       1 UNK         0.0000 
     23 C23        -1.3246   -6.7698    1.3240 C.3       1 UNK         0.0000 
     24 N24        -2.4053   -7.5965    1.8989 N.am      1 UNK         0.0000 
     25 C25        -2.5068   -7.7954    3.2399 C.2       1 UNK         0.0000 
     26 O26        -1.6589   -7.3088    3.9825 O.2       1 UNK         0.0000 
     27 C27        -3.6546   -8.6273    3.8050 C.ar      1 UNK         0.0000 
     28 C28        -4.0250   -8.5608    5.1736 C.ar      1 UNK         0.0000 
     29 O29        -3.4496   -7.7097    6.0796 O.3       1 UNK         0.0000 
     30 C30        -5.0453   -9.3762    5.6958 C.ar      1 UNK         0.0000 
     31 O31        -5.3910   -9.3026    7.0269 O.3       1 UNK         0.0000 
     32 C32        -5.7223  -10.2659    4.8697 C.ar      1 UNK         0.0000 
     33 C33        -5.3853  -10.3389    3.5207 C.ar      1 UNK         0.0000 
     34 C34        -4.3693   -9.5361    2.9973 C.ar      1 UNK         0.0000 
     35 H35         3.4254    0.3131   -4.0228 H         1 UNK         0.0000 
     36 H36         2.6454    2.6945   -4.1204 H         1 UNK         0.0000 
     37 H37         1.3140    3.5764   -2.2391 H         1 UNK         0.0000 
     38 H38         4.8864   -4.4796   -0.2916 H         1 UNK         0.0000 
     39 H39         4.1416   -4.7264   -1.8721 H         1 UNK         0.0000 
     40 H40         3.3676   -5.3798   -0.4342 H         1 UNK         0.0000 
     41 H41        -0.9357   -4.0450    0.5892 H         1 UNK         0.0000 
     42 H42        -0.3059   -5.4318   -1.7966 H         1 UNK         0.0000 
     43 H43         0.7545   -6.0050   -0.4932 H         1 UNK         0.0000 
     44 H44        -1.2814   -7.4245   -0.7426 H         1 UNK         0.0000 
     45 H45        -2.3298   -6.0584   -0.4867 H         1 UNK         0.0000 
     46 H46        -0.3627   -7.2314    1.5531 H         1 UNK         0.0000 
     47 H47        -1.2960   -5.8166    1.8557 H         1 UNK         0.0000 
     48 H48        -2.9975   -8.1169    1.2771 H         1 UNK         0.0000 
     49 H49        -3.8911   -7.8444    6.9270 H         1 UNK         0.0000 
     50 H50        -6.0804   -9.9198    7.2969 H         1 UNK         0.0000 
     51 H51        -6.5114  -10.8883    5.2746 H         1 UNK         0.0000 
     52 H52        -5.9241  -11.0305    2.8853 H         1 UNK         0.0000 
     53 H53        -4.1432   -9.6396    1.9513 H         1 UNK         0.0000 
     54 C54        -3.0394   -3.1422    0.7912 C.ar      1 UNK         0.0000 
     55 C55        -2.5572   -3.2121    2.1107 C.ar      1 UNK         0.0000 
     56 C56        -1.8386   -2.1401    2.6414 C.ar      1 UNK         0.0000 
     57 C57        -1.6550   -0.9739    1.8985 C.ar      1 UNK         0.0000 
     58 O58        -0.6590   -0.2101    2.1903 O.co2     1 UNK         0.0000 
     59 C59        -2.3325   -0.8302    0.6767 C.ar      1 UNK         0.0000 
     60 O60        -2.1658    0.2409    0.0069 O.co2     1 UNK         0.0000 
     61 C61        -2.9087   -1.9544    0.0485 C.ar      1 UNK         0.0000 
     62 C62        -2.8632   -1.9472   -1.4376 C.2       1 UNK         0.0000 
     63 O63        -3.7664   -1.2087   -2.1453 O.3       1 UNK         0.0000 
     64 C64        -3.0905   -0.6257   -3.2387 C.3       1 UNK         0.0000 
     65 H65        -2.9843    0.4361   -3.0194 H         1 UNK         0.0000 
     66 C66        -3.9126   -0.8270   -4.5263 C.3       1 UNK         0.0000 
     67 N67        -1.8021   -2.2516   -2.0901 N.2       1 UNK         0.0000 
     68 C68        -1.7471   -1.3726   -3.2329 C.3       1 UNK         0.0000 
     69 H69        -1.6144   -1.9864   -4.1217 H         1 UNK         0.0000 
     70 C70        -0.5103   -0.3863   -3.1364 C.2       1 UNK         0.0000 
     71 O71        -0.0980    0.1454   -2.0804 O.co2     1 UNK         0.0000 
     72 N72         0.2036   -0.0702   -4.2415 N.am      1 UNK         0.0000 
     73 C73         0.2354   -0.7117   -5.5511 C.3       1 UNK         0.0000 
     74 C74         1.3894   -0.2059   -6.4782 C.3       1 UNK         0.0000 
     75 C75         1.3578    1.3168   -6.7633 C.3       1 UNK         0.0000 
     76 N76         2.4407    1.8912   -7.5883 N.am      1 UNK         0.0000 
     77 C77         2.5493    3.2322   -7.7747 C.2       1 UNK         0.0000 
     78 O78         1.7116    3.9743   -7.2680 O.2       1 UNK         0.0000 
     79 C79         3.6886    3.8027   -8.6167 C.ar      1 UNK         0.0000 
     80 C80         4.0389    5.1790   -8.5687 C.ar      1 UNK         0.0000 
     81 O81         3.4485    6.0901   -7.7365 O.3       1 UNK         0.0000 
     82 C82         5.0524    5.7028   -9.3929 C.ar      1 UNK         0.0000 
     83 O83         5.3756    7.0419   -9.3373 O.3       1 UNK         0.0000 
     84 C84         5.7392    4.8765  -10.2701 C.ar      1 UNK         0.0000 
     85 C85         5.4219    3.5209  -10.3265 C.ar      1 UNK         0.0000 
     86 C86         4.4135    2.9946   -9.5149 C.ar      1 UNK         0.0000 
     87 H87        -3.4190   -4.0273    0.3061 H         1 UNK         0.0000 
     88 H88        -2.6449   -4.1251    2.6881 H         1 UNK         0.0000 
     89 H89        -1.3159   -2.2430    3.5748 H         1 UNK         0.0000 
     90 H90        -4.8799   -0.3121   -4.4823 H         1 UNK         0.0000 
     91 H91        -4.1157   -1.8805   -4.7407 H         1 UNK         0.0000 
     92 H92        -3.3608   -0.4300   -5.3860 H         1 UNK         0.0000 
     93 H93         0.9515    0.5860   -4.0413 H         1 UNK         0.0000 
     94 H94         0.3237   -1.7999   -5.4304 H         1 UNK         0.0000 
     95 H95        -0.7313   -0.4954   -6.0090 H         1 UNK         0.0000 
     96 H96         1.3066   -0.7469   -7.4222 H         1 UNK         0.0000 
     97 H97         2.3529   -0.4985   -6.0530 H         1 UNK         0.0000 
     98 H98         0.3971    1.5521   -7.2253 H         1 UNK         0.0000 
     99 H99         1.3299    1.8461   -5.8089 H         1 UNK         0.0000 
    100 H100        3.0294    1.2676   -8.1120 H         1 UNK         0.0000 
    101 H101        3.8710    6.9443   -7.8942 H         1 UNK         0.0000 
    102 H102        6.0654    7.3129   -9.9537 H         1 UNK         0.0000 
    103 H103        6.5213    5.2834  -10.9008 H         1 UNK         0.0000 
    104 H104        5.9673    2.8852  -11.0112 H         1 UNK         0.0000 
    105 H105        4.2020    1.9441   -9.6075 H         1 UNK         0.0000 
@<TRIPOS>BOND
     1    1    6 nc   
     2    1    8 nc   
     3    1   19 nc   
     4    1   58 nc   
     5    1   60 nc   
     6    1   71 nc   
     7    2    9 ar   
     8    2    3 ar   
     9    2   35 1    
    10    3    4 ar   
    11    3   36 1    
    12    4    5 ar   
    13    4   37 1    
    14    5    7 ar   
    15    5    6 1    
    16    7    8 1    
    17    7    9 ar   
    18    9   10 1    
    19   10   11 1    
    20   10   15 2    
    21   11   12 1    
    22   12   13 1    
    23   12   14 1    
    24   12   16 1    
    25   14   40 1    
    26   14   38 1    
    27   14   39 1    
    28   15   16 1    
    29   16   17 1    
    30   16   18 1    
    31   18   20 am   BACKBONE|DICT|INTERRES
    32   18   19 2    
    33   20   41 1    
    34   20   21 1    
    35   21   43 1    
    36   21   22 1    
    37   21   42 1    
    38   22   23 1    
    39   22   44 1    
    40   22   45 1    
    41   23   46 1    
    42   23   47 1    
    43   23   24 1    
    44   24   25 am   BACKBONE|DICT|INTERRES
    45   24   48 1    
    46   25   27 1    
    47   25   26 2    
    48   27   28 ar   
    49   27   34 ar   
    50   28   30 ar   
    51   28   29 1    
    52   29   49 1    
    53   30   31 1    
    54   30   32 ar   
    55   31   50 1    
    56   32   51 1    
    57   32   33 ar   
    58   33   34 ar   
    59   33   52 1    
    60   34   53 1    
    61   54   55 ar   
    62   54   61 ar   
    63   54   87 1    
    64   55   56 ar   
    65   55   88 1    
    66   56   89 1    
    67   56   57 ar   
    68   57   58 1    
    69   57   59 ar   
    70   59   60 1    
    71   59   61 ar   
    72   61   62 1    
    73   62   63 1    
    74   62   67 2    
    75   63   64 1    
    76   64   68 1    
    77   64   65 1    
    78   64   66 1    
    79   66   90 1    
    80   66   91 1    
    81   66   92 1    
    82   67   68 1    
    83   68   69 1    
    84   68   70 1    
    85   70   71 2    
    86   70   72 am   BACKBONE|DICT|INTERRES
    87   72   93 1    
    88   72   73 1    
    89   73   94 1    
    90   73   74 1    
    91   73   95 1    
    92   74   97 1    
    93   74   75 1    
    94   74   96 1    
    95   75   99 1    
    96   75   76 1    
    97   75   98 1    
    98   76   77 am   BACKBONE|DICT|INTERRES
    99   76  100 1    
   100   77   78 2    
   101   77   79 1    
   102   79   80 ar   
   103   79   86 ar   
   104   80   81 1    
   105   80   82 ar   
   106   81  101 1    
   107   82   83 1    
   108   82   84 ar   
   109   83  102 1    
   110   84   85 ar   
   111   84  103 1    
   112   85   86 ar   
   113   85  104 1    
   114   86  105 1    
@<TRIPOS>SUBSTRUCTURE
     1 UNK         1 GROUP             0       ****    0 ROOT    
