@<TRIPOS>MOLECULE
275_c1
85   96    1
SMALL
USER_CHARGES


@<TRIPOS>ATOM
      1 Fe1         0.0001    0.2808   -0.2813 Fe        1 UNK         0.0000 
      2 C2         -1.6434   -3.9815   -3.2006 C.ar      1 UNK         0.0000 
      3 C3         -2.8072   -4.3932   -2.5418 C.ar      1 UNK         0.0000 
      4 C4         -3.0193   -4.0211   -1.2177 C.ar      1 UNK         0.0000 
      5 C5         -2.0889   -3.2138   -0.5700 C.ar      1 UNK         0.0000 
      6 C6         -0.9450   -2.7768   -1.2333 C.ar      1 UNK         0.0000 
      7 O7         -0.2170   -1.9964   -0.5686 O.co2     1 UNK         0.0000 
      8 C8         -0.6829   -3.1582   -2.5747 C.ar      1 UNK         0.0000 
      9 C9          0.5428   -2.6949   -3.4341 C.3       1 UNK         0.0000 
     10 N10         1.7760   -2.5975   -2.6796 N.2       1 UNK         0.0000 
     11 C11         2.3060   -1.4754   -2.9545 C.2       1 UNK         0.0000 
     12 C12         3.4249   -0.7681   -2.2485 C.ar      1 UNK         0.0000 
     13 C13         3.4019   -0.3452   -0.8893 C.ar      1 UNK         0.0000 
     14 O14         2.3407   -0.3284   -0.1831 O.co2     1 UNK         0.0000 
     15 C15         4.4841    0.3557   -0.3444 C.ar      1 UNK         0.0000 
     16 C16         5.5064    0.8253   -1.1677 C.ar      1 UNK         0.0000 
     17 C17         5.4929    0.5325   -2.5233 C.ar      1 UNK         0.0000 
     18 C18         4.4872   -0.2879   -3.0389 C.ar      1 UNK         0.0000 
     19 N19         1.7235   -0.9326   -4.1325 N.pl3     1 UNK         0.0000 
     20 N20         0.3909   -1.5072   -4.3072 N.pl3     1 UNK         0.0000 
     21 C21        -0.6087   -0.4980   -4.3684 C.ar      1 UNK         0.0000 
     22 C22        -0.3306    0.7795   -4.9034 C.ar      1 UNK         0.0000 
     23 C23        -0.9358    1.8957   -4.3292 C.ar      1 UNK         0.0000 
     24 C24        -1.8011    1.6747   -3.2532 C.ar      1 UNK         0.0000 
     25 C25        -1.7953    2.6154   -2.1044 C.2       1 UNK         0.0000 
     26 O26        -1.0347    2.3045   -1.1232 O.co2     1 UNK         0.0000 
     27 O27        -2.3730    3.7154   -2.2337 O.co2     1 UNK         0.0000 
     28 C28        -2.4138    0.4347   -3.1204 C.ar      1 UNK         0.0000 
     29 C29        -1.8476   -0.6561   -3.7459 C.ar      1 UNK         0.0000 
     30 H30        -1.5090   -4.2376   -4.2393 H         1 UNK         0.0000 
     31 H31        -3.5403   -4.9979   -3.0482 H         1 UNK         0.0000 
     32 H32        -3.9052   -4.3143   -0.6765 H         1 UNK         0.0000 
     33 H33        -2.2707   -2.8675    0.4429 H         1 UNK         0.0000 
     34 H34         4.4458    0.6934    0.6865 H         1 UNK         0.0000 
     35 H35         6.2571    1.4823   -0.7625 H         1 UNK         0.0000 
     36 H36         6.2239    0.9581   -3.1901 H         1 UNK         0.0000 
     37 H37         4.4602   -0.4744   -4.1009 H         1 UNK         0.0000 
     38 H38         0.5432    0.9393   -5.5116 H         1 UNK         0.0000 
     39 H39        -0.4627    2.8611   -4.4669 H         1 UNK         0.0000 
     40 H40        -3.1022    0.2396   -2.3229 H         1 UNK         0.0000 
     41 H41        -2.2691   -1.6021   -3.5056 H         1 UNK         0.0000 
     42 C42         1.6287    3.2260    3.9696 C.ar      1 UNK         0.0000 
     43 C43         2.7868    2.5657    4.3943 C.ar      1 UNK         0.0000 
     44 C44         2.9972    1.2386    4.0319 C.ar      1 UNK         0.0000 
     45 C45         2.0703    0.5889    3.2223 C.ar      1 UNK         0.0000 
     46 C46         0.9316    1.2531    2.7740 C.ar      1 UNK         0.0000 
     47 O47         0.2064    0.5845    1.9945 O.co2     1 UNK         0.0000 
     48 C48         0.6714    2.5980    3.1442 C.ar      1 UNK         0.0000 
     49 C49        -0.5488    3.4588    2.6676 C.3       1 UNK         0.0000 
     50 N50        -1.7839    2.7081    2.5699 N.2       1 UNK         0.0000 
     51 C51        -2.3071    2.9754    1.4430 C.2       1 UNK         0.0000 
     52 C52        -3.4247    2.2659    0.7369 C.ar      1 UNK         0.0000 
     53 C53        -3.4028    0.9025    0.3280 C.ar      1 UNK         0.0000 
     54 O54        -2.3431    0.1932    0.3179 O.co2     1 UNK         0.0000 
     55 C55        -4.4847    0.3540   -0.3704 C.ar      1 UNK         0.0000 
     56 C56        -5.5064    1.1736   -0.8477 C.ar      1 UNK         0.0000 
     57 C57        -5.4911    2.5316   -0.5677 C.ar      1 UNK         0.0000 
     58 C58        -4.4848    3.0541    0.2472 C.ar      1 UNK         0.0000 
     59 N59        -1.7186    4.1475    0.8939 N.pl3     1 UNK         0.0000 
     60 N60        -0.3882    4.3230    1.4741 N.pl3     1 UNK         0.0000 
     61 C61         0.6173    4.3735    0.4702 C.ar      1 UNK         0.0000 
     62 C62         0.3485    4.8992   -0.8137 C.ar      1 UNK         0.0000 
     63 C63         0.9576    4.3128   -1.9212 C.ar      1 UNK         0.0000 
     64 C64         1.8159    3.2351   -1.6858 C.ar      1 UNK         0.0000 
     65 C65         1.8054    2.0770   -2.6143 C.2       1 UNK         0.0000 
     66 O66         1.0462    1.1055   -2.3056 O.co2     1 UNK         0.0000 
     67 O67         2.3929    2.2007   -3.7194 O.co2     1 UNK         0.0000 
     68 C68         2.4212    3.1076   -0.4398 C.ar      1 UNK         0.0000 
     69 C69         1.8530    3.7478    0.6408 C.ar      1 UNK         0.0000 
     70 H70         1.4956    4.2664    4.2185 H         1 UNK         0.0000 
     71 H71         3.5169    3.0730    5.0015 H         1 UNK         0.0000 
     72 H72         3.8788    0.6958    4.3358 H         1 UNK         0.0000 
     73 H73         2.2512   -0.4271    2.8846 H         1 UNK         0.0000 
     74 H74        -4.4472   -0.6802   -0.6980 H         1 UNK         0.0000 
     75 H75        -6.2578    0.7621   -1.5000 H         1 UNK         0.0000 
     76 H76        -6.2211    3.1953   -1.0005 H         1 UNK         0.0000 
     77 H77        -4.4561    4.1178    0.4239 H         1 UNK         0.0000 
     78 H78        -0.5215    5.5100   -0.9830 H         1 UNK         0.0000 
     79 H79         0.4922    4.4462   -2.8919 H         1 UNK         0.0000 
     80 H80         3.1030    2.3073   -0.2338 H         1 UNK         0.0000 
     81 H81         2.2681    3.5143    1.5917 H         1 UNK         0.0000 
     82 H82         0.7053   -3.5271   -4.1133 H         1 UNK         0.0000 
     83 H83         1.6063    0.0872   -4.0866 H         1 UNK         0.0000 
     84 H84        -0.7132    4.1446    3.4942 H         1 UNK         0.0000 
     85 H85        -1.5969    4.0932   -0.1248 H         1 UNK         0.0000 
@<TRIPOS>BOND
     1    1    7 nc   
     2    1   14 nc   
     3    1   26 nc   
     4    1   47 nc   
     5    1   54 nc   
     6    1   66 nc   
     7    2    3 ar   
     8    2    8 ar   
     9    2   30 1    
    10    3    4 ar   
    11    3   31 1    
    12    4   32 1    
    13    4    5 ar   
    14    5   33 1    
    15    5    6 ar   
    16    6    7 1    
    17    6    8 ar   
    18    8    9 1    
    19    9   10 1    
    20    9   20 1    
    21    9   82 1    
    22   10   11 2    
    23   11   12 1    
    24   11   19 1    
    25   12   13 ar   
    26   12   18 ar   
    27   13   15 ar   
    28   13   14 1    
    29   15   34 1    
    30   15   16 ar   
    31   16   35 1    
    32   16   17 ar   
    33   17   18 ar   
    34   17   36 1    
    35   18   37 1    
    36   19   20 1    
    37   19   83 1    
    38   20   21 1    
    39   21   29 ar   
    40   21   22 ar   
    41   22   23 ar   
    42   22   38 1    
    43   23   24 ar   
    44   23   39 1    
    45   24   25 1    
    46   24   28 ar   
    47   25   26 1    
    48   25   27 2    
    49   28   40 1    
    50   28   29 ar   
    51   29   41 1    
    52   42   70 1    
    53   42   43 ar   
    54   42   48 ar   
    55   43   71 1    
    56   43   44 ar   
    57   44   72 1    
    58   44   45 ar   
    59   45   46 ar   
    60   45   73 1    
    61   46   48 ar   
    62   46   47 1    
    63   48   49 1    
    64   49   50 1    
    65   49   60 1    
    66   49   84 1    
    67   50   51 2    
    68   51   52 1    
    69   51   59 1    
    70   52   53 ar   
    71   52   58 ar   
    72   53   54 1    
    73   53   55 ar   
    74   55   56 ar   
    75   55   74 1    
    76   56   57 ar   
    77   56   75 1    
    78   57   58 ar   
    79   57   76 1    
    80   58   77 1    
    81   59   60 1    
    82   59   85 1    
    83   60   61 1    
    84   61   69 ar   
    85   61   62 ar   
    86   62   63 ar   
    87   62   78 1    
    88   63   64 ar   
    89   63   79 1    
    90   64   68 ar   
    91   64   65 1    
    92   65   66 1    
    93   65   67 2    
    94   68   80 1    
    95   68   69 ar   
    96   69   81 1    
@<TRIPOS>SUBSTRUCTURE
     1 UNK         1 GROUP             0       ****    0 ROOT    
