@<TRIPOS>MOLECULE
172_c1
99   104    1
SMALL
USER_CHARGES


@<TRIPOS>ATOM
      1 Fe1        -0.2381   -0.3007   -0.7446 Fe        1 UNK         0.0000 
      2 O2          4.0270    4.5759   -6.7275 O.3       1 UNK         0.0000 
      3 C3          3.2562    3.5750   -6.1001 C.3       1 UNK         0.0000 
      4 C4          3.3075    3.7676   -4.5784 C.3       1 UNK         0.0000 
      5 C5          2.5105    2.7281   -3.8074 C.2       1 UNK         0.0000 
      6 C6          3.0853    1.3126   -3.9244 C.3       1 UNK         0.0000 
      7 C7          1.3999    3.0793   -3.0964 C.2       1 UNK         0.0000 
      8 C8          0.6244    2.1576   -2.2832 C.2       1 UNK         0.0000 
      9 O9          1.0771    1.0643   -1.9601 O.co2     1 UNK         0.0000 
     10 N10        -0.6488    2.4194   -1.8754 N.am      1 UNK         0.0000 
     11 O11        -1.4527    1.4435   -1.4364 O.co2     1 UNK         0.0000 
     12 C12        -1.1734    3.7597   -1.5635 C.3       1 UNK         0.0000 
     13 C13        -1.2250    4.0365   -0.0396 C.3       1 UNK         0.0000 
     14 C14        -1.7791    5.4325    0.3108 C.3       1 UNK         0.0000 
     15 C15        -1.8197    5.7657    1.8280 C.3       1 UNK         0.0000 
     16 H16        -2.2345    6.7734    1.9046 H         1 UNK         0.0000 
     17 C17        -0.3701    5.9669    2.3784 C.2       1 UNK         0.0000 
     18 O18         0.4866    6.6731    1.8576 O.2       1 UNK         0.0000 
     19 N19        -0.0697    5.3166    3.5097 N.am      1 UNK         0.0000 
     20 C20        -0.9616    4.4126    4.2658 C.3       1 UNK         0.0000 
     21 H21        -1.0940    4.8588    5.2530 H         1 UNK         0.0000 
     22 C22        -2.4379    4.2837    3.7640 C.2       1 UNK         0.0000 
     23 O23        -3.3313    3.7020    4.3678 O.2       1 UNK         0.0000 
     24 N24        -2.7213    4.8889    2.6031 N.am      1 UNK         0.0000 
     25 C25        -0.3444    3.0040    4.4937 C.3       1 UNK         0.0000 
     26 C26        -0.0297    2.2541    3.1885 C.3       1 UNK         0.0000 
     27 C27         0.5292    0.8193    3.3634 C.3       1 UNK         0.0000 
     28 N28         0.6107    0.1017    2.0779 N.am      1 UNK         0.0000 
     29 O29        -0.5524    0.0768    1.4259 O.co2     1 UNK         0.0000 
     30 C30         1.7353   -0.4362    1.5396 C.2       1 UNK         0.0000 
     31 O31         1.7127   -0.7488    0.3431 O.co2     1 UNK         0.0000 
     32 C32         2.8597   -0.7825    2.3795 C.2       1 UNK         0.0000 
     33 C33         3.1790   -2.0562    2.7239 C.2       1 UNK         0.0000 
     34 C34         4.4154   -2.3489    3.5590 C.3       1 UNK         0.0000 
     35 C35         2.3678   -3.3028    2.3506 C.3       1 UNK         0.0000 
     36 C36         3.1153   -4.3582    1.5058 C.3       1 UNK         0.0000 
     37 O37         2.2064   -5.2851    0.9176 O.3       1 UNK         0.0000 
     38 C38         1.5481   -6.2253    1.6449 C.2       1 UNK         0.0000 
     39 O39         1.7760   -6.4650    2.8369 O.2       1 UNK         0.0000 
     40 C40         0.5010   -6.9599    0.7951 C.3       1 UNK         0.0000 
     41 H41         1.0078   -7.2895   -0.1166 H         1 UNK         0.0000 
     42 N42         0.0771   -8.1649    1.5379 N.am      1 UNK         0.0000 
     43 C43        -0.5482   -9.2132    0.9846 C.2       1 UNK         0.0000 
     44 O44        -0.8140   -9.2648   -0.2121 O.2       1 UNK         0.0000 
     45 C45        -0.9296  -10.3705    1.8981 C.3       1 UNK         0.0000 
     46 C46        -0.7194   -6.0584    0.4084 C.3       1 UNK         0.0000 
     47 C47        -0.3834   -4.7404   -0.3150 C.3       1 UNK         0.0000 
     48 C48        -1.5351   -4.2020   -1.1785 C.3       1 UNK         0.0000 
     49 N49        -1.3257   -2.9105   -1.8363 N.3       1 UNK         0.0000 
     50 O50        -1.6548   -1.8924   -0.8977 O.co2     1 UNK         0.0000 
     51 C51        -0.1306   -2.5044   -2.6078 C.3       1 UNK         0.0000 
     52 O52         0.5856   -1.4370   -2.0326 O.3       1 UNK         0.0000 
     53 C53         0.9347   -3.5527   -2.9463 C.3       1 UNK         0.0000 
     54 H54         4.9643    4.3801   -6.6314 H         1 UNK         0.0000 
     55 H55         3.6305    2.5941   -6.4028 H         1 UNK         0.0000 
     56 H56         2.2261    3.6460   -6.4560 H         1 UNK         0.0000 
     57 H57         4.3387    3.7236   -4.2293 H         1 UNK         0.0000 
     58 H58         2.9593    4.7704   -4.3330 H         1 UNK         0.0000 
     59 H59         2.3538    0.6402   -4.3777 H         1 UNK         0.0000 
     60 H60         3.3766    0.9229   -2.9486 H         1 UNK         0.0000 
     61 H61         3.9814    1.2713   -4.5438 H         1 UNK         0.0000 
     62 H62        -2.1842    3.8409   -1.9749 H         1 UNK         0.0000 
     63 H63        -0.6339    4.5785   -2.0434 H         1 UNK         0.0000 
     64 H64        -1.8456    3.2829    0.4474 H         1 UNK         0.0000 
     65 H65        -0.2239    3.9219    0.3754 H         1 UNK         0.0000 
     66 H66        -2.7928    5.5094   -0.0864 H         1 UNK         0.0000 
     67 H67        -1.2067    6.1944   -0.2216 H         1 UNK         0.0000 
     68 H68         0.8789    5.4459    3.8202 H         1 UNK         0.0000 
     69 H69        -3.6634    4.7361    2.2787 H         1 UNK         0.0000 
     70 H70        -1.0095    2.3982    5.1146 H         1 UNK         0.0000 
     71 H71         0.5791    3.1044    5.0632 H         1 UNK         0.0000 
     72 H72         0.6686    2.8276    2.5800 H         1 UNK         0.0000 
     73 H73        -0.9567    2.2094    2.6183 H         1 UNK         0.0000 
     74 H74        -0.1425    0.2478    4.0089 H         1 UNK         0.0000 
     75 H75         1.4695    0.8517    3.9250 H         1 UNK         0.0000 
     76 H76         3.4585    0.0541    2.7094 H         1 UNK         0.0000 
     77 H77         4.9389   -1.4381    3.8481 H         1 UNK         0.0000 
     78 H78         5.1219   -2.9621    2.9993 H         1 UNK         0.0000 
     79 H79         4.1453   -2.8805    4.4701 H         1 UNK         0.0000 
     80 H80         2.0216   -3.7653    3.2742 H         1 UNK         0.0000 
     81 H81         1.4578   -3.0206    1.8243 H         1 UNK         0.0000 
     82 H82         3.8647   -4.8885    2.0960 H         1 UNK         0.0000 
     83 H83         3.6331   -3.8641    0.6832 H         1 UNK         0.0000 
     84 H84         0.3200   -8.1757    2.5205 H         1 UNK         0.0000 
     85 H85        -2.0134  -10.4839    1.9093 H         1 UNK         0.0000 
     86 H86        -0.4941  -11.2963    1.5230 H         1 UNK         0.0000 
     87 H87        -0.5875  -10.2140    2.9207 H         1 UNK         0.0000 
     88 H88        -1.3594   -6.6492   -0.2515 H         1 UNK         0.0000 
     89 H89        -1.3331   -5.8520    1.2886 H         1 UNK         0.0000 
     90 H90         0.4389   -5.0031   -0.9627 H         1 UNK         0.0000 
     91 H91        -0.0394   -3.9786    0.3826 H         1 UNK         0.0000 
     92 H92        -2.4358   -4.1639   -0.5611 H         1 UNK         0.0000 
     93 H93        -1.7921   -4.9287   -1.9475 H         1 UNK         0.0000 
     94 H94         1.5483   -3.2061   -3.7790 H         1 UNK         0.0000 
     95 H95         1.6182   -3.7260   -2.1138 H         1 UNK         0.0000 
     96 H96         0.4850   -4.5018   -3.2403 H         1 UNK         0.0000 
     97 H97        -0.5336   -2.1235   -3.5483 H         1 UNK         0.0000 
     98 H98         1.4207   -1.4822   -2.5377 H         1 UNK         0.0000 
     99 H99         1.0624    4.1036   -3.1220 H         1 UNK         0.0000 
@<TRIPOS>BOND
     1    1    9 nc   
     2    1   11 nc   
     3    1   29 nc   
     4    1   31 nc   
     5    1   50 nc   
     6    1   52 nc   
     7    2   54 1    
     8    2    3 1    
     9    3    4 1    
    10    3   55 1    
    11    3   56 1    
    12    4   58 1    
    13    4   57 1    
    14    4    5 1    
    15    5    7 2    
    16    5    6 1    
    17    6   60 1    
    18    6   59 1    
    19    6   61 1    
    20    7    8 1    
    21    7   99 1    
    22    8    9 2    
    23    8   10 am   BACKBONE|DICT|INTERRES
    24   10   12 1    
    25   10   11 1    
    26   12   13 1    
    27   12   62 1    
    28   12   63 1    
    29   13   14 1    
    30   13   65 1    
    31   13   64 1    
    32   14   15 1    
    33   14   66 1    
    34   14   67 1    
    35   15   16 1    
    36   15   17 1    
    37   15   24 1    
    38   17   19 am   BACKBONE|DICT|INTERRES
    39   17   18 2    
    40   19   68 1    
    41   19   20 1    
    42   20   25 1    
    43   20   21 1    
    44   20   22 1    
    45   22   23 2    
    46   22   24 am   BACKBONE|DICT|INTERRES
    47   24   69 1    
    48   25   71 1    
    49   25   70 1    
    50   25   26 1    
    51   26   27 1    
    52   26   72 1    
    53   26   73 1    
    54   27   75 1    
    55   27   74 1    
    56   27   28 1    
    57   28   29 1    
    58   28   30 am   BACKBONE|DICT|INTERRES
    59   30   31 2    
    60   30   32 1    
    61   32   33 2    
    62   32   76 1    
    63   33   34 1    
    64   33   35 1    
    65   34   77 1    
    66   34   79 1    
    67   34   78 1    
    68   35   80 1    
    69   35   36 1    
    70   35   81 1    
    71   36   82 1    
    72   36   37 1    
    73   36   83 1    
    74   37   38 1    
    75   38   39 2    
    76   38   40 1    
    77   40   41 1    
    78   40   42 1    
    79   40   46 1    
    80   42   84 1    
    81   42   43 am   BACKBONE|DICT|INTERRES
    82   43   45 1    
    83   43   44 2    
    84   45   87 1    
    85   45   85 1    
    86   45   86 1    
    87   46   89 1    
    88   46   47 1    
    89   46   88 1    
    90   47   91 1    
    91   47   48 1    
    92   47   90 1    
    93   48   92 1    
    94   48   49 1    
    95   48   93 1    
    96   49   50 1    
    97   49   51 1    
    98   51   53 1    
    99   51   52 1    
   100   51   97 1    
   101   52   98 1    
   102   53   95 1    
   103   53   94 1    
   104   53   96 1    
@<TRIPOS>SUBSTRUCTURE
     1 UNK         1 GROUP             0       ****    0 ROOT    
