@<TRIPOS>MOLECULE
236_c1
51   58    1
SMALL
USER_CHARGES


@<TRIPOS>ATOM
      1 Fe1         0.3086    1.2328    1.2882 Fe        1 UNK         0.0000 
      2 C2          0.5158   -3.7584    2.6709 C.ar      1 UNK         0.0000 
      3 C3          0.0308   -3.2875    3.8896 C.ar      1 UNK         0.0000 
      4 C4         -0.0104   -1.9072    4.1179 C.ar      1 UNK         0.0000 
      5 C5          0.4960   -1.0274    3.1685 C.ar      1 UNK         0.0000 
      6 O6          0.1420    0.1763    3.1621 O.co2     1 UNK         0.0000 
      7 C7          1.1893   -1.4738    2.0525 C.ar      1 UNK         0.0000 
      8 O8          1.6879   -0.5699    1.2698 O.co2     1 UNK         0.0000 
      9 C9          1.0574   -2.8567    1.7361 C.ar      1 UNK         0.0000 
     10 C10         0.7406   -3.1039    0.3356 C.2       1 UNK         0.0000 
     11 O11         1.6049   -3.5722   -0.6103 O.3       1 UNK         0.0000 
     12 C12         1.0244   -3.1027   -1.8231 C.3       1 UNK         0.0000 
     13 H13         0.5247   -3.9312   -2.3332 H         1 UNK         0.0000 
     14 C14         2.1738   -2.5450   -2.6910 C.3       1 UNK         0.0000 
     15 N15        -0.3491   -2.6805   -0.1232 N.2       1 UNK         0.0000 
     16 C16         0.0467   -2.0620   -1.2530 C.2       1 UNK         0.0000 
     17 C17        -0.1342   -0.7534   -1.5410 C.2       1 UNK         0.0000 
     18 O18        -0.2542    0.2006   -0.6567 O.co2     1 UNK         0.0000 
     19 N19        -0.2117   -0.3607   -2.8749 N.pl3     1 UNK         0.0000 
     20 C20         0.3937    0.6800   -3.6872 C.3       1 UNK         0.0000 
     21 C21         0.5173    2.0369   -3.0055 C.3       1 UNK         0.0000 
     22 C22        -0.8212    2.6869   -2.6290 C.3       1 UNK         0.0000 
     23 N23        -0.4367    3.8292   -1.8067 N.3       1 UNK         0.0000 
     24 C24        -0.7246    3.8533   -0.3830 C.3       1 UNK         0.0000 
     25 O25        -1.1080    2.5769    0.1339 O.co2     1 UNK         0.0000 
     26 C26         0.5993    4.3426    0.3167 C.ar      1 UNK         0.0000 
     27 C27         1.3227    3.4229    1.1269 C.ar      1 UNK         0.0000 
     28 O28         1.8452    2.3111    0.7127 O.co2     1 UNK         0.0000 
     29 C29         0.7724    3.4494    2.4071 C.ar      1 UNK         0.0000 
     30 O30        -0.1096    2.5600    2.5860 O.co2     1 UNK         0.0000 
     31 C31         0.5429    4.6806    3.0230 C.ar      1 UNK         0.0000 
     32 C32         0.5631    5.8318    2.2269 C.ar      1 UNK         0.0000 
     33 C33         0.5500    5.6596    0.8313 C.ar      1 UNK         0.0000 
     34 H34         0.2908   -4.7755    2.3848 H         1 UNK         0.0000 
     35 H35        -0.4633   -3.9538    4.5796 H         1 UNK         0.0000 
     36 H36        -0.5164   -1.5184    4.9834 H         1 UNK         0.0000 
     37 H37         2.9831   -3.2671   -2.8031 H         1 UNK         0.0000 
     38 H38         1.8182   -2.2639   -3.6839 H         1 UNK         0.0000 
     39 H39         2.5705   -1.6491   -2.2166 H         1 UNK         0.0000 
     40 H40        -0.4520   -1.1443   -3.4517 H         1 UNK         0.0000 
     41 H41        -0.3141    0.7947   -4.5108 H         1 UNK         0.0000 
     42 H42         1.3443    0.3732   -4.1352 H         1 UNK         0.0000 
     43 H43         1.1363    1.9125   -2.1169 H         1 UNK         0.0000 
     44 H44         1.0616    2.7137   -3.6597 H         1 UNK         0.0000 
     45 H45        -1.5082    1.9587   -2.1804 H         1 UNK         0.0000 
     46 H46        -1.3092    3.0279   -3.5376 H         1 UNK         0.0000 
     47 H47         0.5368    3.6005   -1.6680 H         1 UNK         0.0000 
     48 H48        -1.4934    4.6126   -0.2089 H         1 UNK         0.0000 
     49 H49         0.3150    6.7847    2.6608 H         1 UNK         0.0000 
     50 H50         0.1405    4.7171    4.0254 H         1 UNK         0.0000 
     51 H51         0.2158    6.4811    0.2121 H         1 UNK         0.0000 
@<TRIPOS>BOND
     1    1    6 nc   
     2    1    8 nc   
     3    1   18 nc   
     4    1   25 nc   
     5    1   28 nc   
     6    1   30 nc   
     7    2    3 ar   
     8    2    9 ar   
     9    2   34 1    
    10    3    4 ar   
    11    3   35 1    
    12    4   36 1    
    13    4    5 ar   
    14    5    6 1    
    15    5    7 ar   
    16    7    8 1    
    17    7    9 ar   
    18    9   10 1    
    19   10   11 1    
    20   10   15 2    
    21   11   12 1    
    22   12   13 1    
    23   12   16 1    
    24   12   14 1    
    25   14   39 1    
    26   14   37 1    
    27   14   38 1    
    28   15   16 1    
    29   16   17 2    
    30   17   18 1    
    31   17   19 1    
    32   19   20 1    
    33   19   40 1    
    34   20   21 1    
    35   20   41 1    
    36   20   42 1    
    37   21   22 1    
    38   21   43 1    
    39   21   44 1    
    40   22   45 1    
    41   22   23 1    
    42   22   46 1    
    43   23   24 1    
    44   23   47 1    
    45   24   25 1    
    46   24   26 1    
    47   24   48 1    
    48   26   33 ar   
    49   26   27 ar   
    50   27   28 1    
    51   27   29 ar   
    52   29   30 1    
    53   29   31 ar   
    54   31   32 ar   
    55   31   50 1    
    56   32   33 ar   
    57   32   49 1    
    58   33   51 1    
@<TRIPOS>SUBSTRUCTURE
     1 UNK         1 GROUP             0       ****    0 ROOT    
