@<TRIPOS>MOLECULE
043_c1
128   132    1
SMALL
USER_CHARGES


@<TRIPOS>ATOM
      1 O1         13.9586    5.1137   -3.1464 O.co2     1 UNK         0.0000 
      2 C2         13.1737    5.8560   -3.7526 C.2       1 UNK         0.0000 
      3 C3         12.3117    5.2870   -4.8759 C.3       1 UNK         0.0000 
      4 N4         13.0931    7.1558   -3.3581 N.am      1 UNK         0.0000 
      5 O5         13.8769    7.6839   -2.4093 O.co2     1 UNK         0.0000 
      6 C6         12.0822    8.0988   -3.8814 C.3       1 UNK         0.0000 
      7 C7         11.0515    8.5769   -2.8243 C.3       1 UNK         0.0000 
      8 C8         11.5565    9.5829   -1.7498 C.3       1 UNK         0.0000 
      9 C9         12.0476   10.9594   -2.2855 C.3       1 UNK         0.0000 
     10 H10        12.7530   10.7897   -3.1019 H         1 UNK         0.0000 
     11 C11        10.8385   11.7718   -2.8802 C.2       1 UNK         0.0000 
     12 O12        10.0914   12.3165   -2.0306 O.co2     1 UNK         0.0000 
     13 O13        10.6487   11.6082   -4.1051 O.co2     1 UNK         0.0000 
     14 N14        12.7698   11.6967   -1.2248 N.am      1 UNK         0.0000 
     15 C15        13.5219   12.7938   -1.4117 C.2       1 UNK         0.0000 
     16 O16        13.7443   13.3174   -2.4972 O.2       1 UNK         0.0000 
     17 C17        14.2011   13.3694   -0.1499 C.3       1 UNK         0.0000 
     18 H18        13.4473   13.4065    0.6333 H         1 UNK         0.0000 
     19 C19        14.7653   14.8040   -0.3076 C.3       1 UNK         0.0000 
     20 O20        13.7426   15.7834   -0.3234 O.3       1 UNK         0.0000 
     21 N21        15.2377   12.4611    0.3468 N.am      1 UNK         0.0000 
     22 C22        16.3793   12.1401   -0.2744 C.2       1 UNK         0.0000 
     23 O23        16.7860   12.6913   -1.2941 O.2       1 UNK         0.0000 
     24 C24        17.2352   11.0357    0.3791 C.3       1 UNK         0.0000 
     25 H25        17.5470   11.3839    1.3665 H         1 UNK         0.0000 
     26 C26        16.4774    9.6930    0.4951 C.3       1 UNK         0.0000 
     27 C27        15.2436    9.5584    1.4116 C.3       1 UNK         0.0000 
     28 C28        14.9361    8.0966    1.8251 C.3       1 UNK         0.0000 
     29 N29        14.6754    7.1389    0.7238 N.am      1 UNK         0.0000 
     30 O30        15.7149    7.0046   -0.1070 O.co2     1 UNK         0.0000 
     31 C31        13.5246    6.4296    0.5404 C.2       1 UNK         0.0000 
     32 O32        13.4526    5.6989   -0.4636 O.co2     1 UNK         0.0000 
     33 C33        12.3280    6.4917    1.4887 C.3       1 UNK         0.0000 
     34 N34        18.4340   10.8214   -0.4340 N.am      1 UNK         0.0000 
     35 C35        19.4844   10.0881   -0.0406 C.2       1 UNK         0.0000 
     36 O36        19.6666    9.7494    1.1277 O.2       1 UNK         0.0000 
     37 C37        20.4664    9.6082   -1.1190 C.3       1 UNK         0.0000 
     38 H38        20.3486   10.2943   -1.9635 H         1 UNK         0.0000 
     39 C39        20.2150    8.1603   -1.6095 C.3       1 UNK         0.0000 
     40 C40        18.7887    7.7021   -1.9199 C.3       1 UNK         0.0000 
     41 C41        18.7551    6.2196   -2.3720 C.3       1 UNK         0.0000 
     42 N42        17.4136    5.6269   -2.2947 N.am      1 UNK         0.0000 
     43 O43        16.5036    6.3674   -2.9349 O.co2     1 UNK         0.0000 
     44 C44        17.0774    4.5825   -1.4893 C.2       1 UNK         0.0000 
     45 O45        15.8681    4.4314   -1.2482 O.co2     1 UNK         0.0000 
     46 C46        18.1036    3.6533   -0.8340 C.3       1 UNK         0.0000 
     47 N47        21.8168    9.6225   -0.5728 N.am      1 UNK         0.0000 
     48 C48        22.9537    9.6907   -1.2843 C.2       1 UNK         0.0000 
     49 O49        24.0141    9.3200   -0.8059 O.2       1 UNK         0.0000 
     50 C50        22.9250   10.3465   -2.6639 C.3       1 UNK         0.0000 
     51 H51        12.5613    4.2467   -5.0523 H         1 UNK         0.0000 
     52 H52        11.2568    5.3450   -4.6220 H         1 UNK         0.0000 
     53 H53        12.4765    5.8294   -5.8031 H         1 UNK         0.0000 
     54 H54        12.6084    8.9545   -4.3163 H         1 UNK         0.0000 
     55 H55        11.5109    7.6960   -4.7194 H         1 UNK         0.0000 
     56 H56        10.6481    7.6920   -2.3362 H         1 UNK         0.0000 
     57 H57        10.2133    9.0376   -3.3547 H         1 UNK         0.0000 
     58 H58        12.3418    9.1165   -1.1542 H         1 UNK         0.0000 
     59 H59        10.7419    9.7434   -1.0403 H         1 UNK         0.0000 
     60 H60        12.5685   11.3805   -0.2923 H         1 UNK         0.0000 
     61 H61        15.3773   14.9136   -1.2067 H         1 UNK         0.0000 
     62 H62        15.4200   15.0335    0.5314 H         1 UNK         0.0000 
     63 H63        13.3476   15.7707   -1.2110 H         1 UNK         0.0000 
     64 H64        14.9961   11.9539    1.1831 H         1 UNK         0.0000 
     65 H65        17.1973    8.9403    0.8294 H         1 UNK         0.0000 
     66 H66        16.1717    9.4155   -0.5185 H         1 UNK         0.0000 
     67 H67        14.3613    9.9644    0.9218 H         1 UNK         0.0000 
     68 H68        15.4048   10.1329    2.3255 H         1 UNK         0.0000 
     69 H69        15.8074    7.6961    2.3541 H         1 UNK         0.0000 
     70 H70        14.1548    8.1464    2.5719 H         1 UNK         0.0000 
     71 H71        12.4611    7.0686    2.3987 H         1 UNK         0.0000 
     72 H72        12.0923    5.4762    1.8002 H         1 UNK         0.0000 
     73 H73        11.4620    6.8991    0.9671 H         1 UNK         0.0000 
     74 H74        18.3521   11.1741   -1.3819 H         1 UNK         0.0000 
     75 H75        20.8387    7.9950   -2.4909 H         1 UNK         0.0000 
     76 H76        20.5975    7.4875   -0.8368 H         1 UNK         0.0000 
     77 H77        18.3324    8.3289   -2.6892 H         1 UNK         0.0000 
     78 H78        18.1806    7.8015   -1.0201 H         1 UNK         0.0000 
     79 H79        19.1340    6.1308   -3.3948 H         1 UNK         0.0000 
     80 H80        19.4723    5.6755   -1.7600 H         1 UNK         0.0000 
     81 H81        17.7582    2.6218   -0.8892 H         1 UNK         0.0000 
     82 H82        18.2078    3.9189    0.2170 H         1 UNK         0.0000 
     83 H83        19.0860    3.6760   -1.3063 H         1 UNK         0.0000 
     84 H84        21.8671    9.3485    0.4002 H         1 UNK         0.0000 
     85 Fe85       14.9197    6.1141   -1.7359 Fe        1 UNK         0.0000 
     86 H86        22.1417    9.9015   -3.2796 H         1 UNK         0.0000 
     87 H87        23.8636   10.1541   -3.1890 H         1 UNK         0.0000 
     88 C88        22.7455   11.8613   -2.4654 C.3       1 UNK         0.0000 
     89 H89        22.0238   12.0674   -1.6695 H         1 UNK         0.0000 
     90 C90        22.2584   12.6240   -3.6886 C.3       1 UNK         0.0000 
     91 H91        23.6934   12.2823   -2.1237 H         1 UNK         0.0000 
     92 H92        21.2926   12.2222   -4.0040 H         1 UNK         0.0000 
     93 H93        22.9437   12.4986   -4.5288 H         1 UNK         0.0000 
     94 C94        22.1241   14.1094   -3.3224 C.3       1 UNK         0.0000 
     95 H95        21.4925   14.2113   -2.4364 H         1 UNK         0.0000 
     96 C96        21.5057   14.9172   -4.4480 C.3       1 UNK         0.0000 
     97 H97        23.1008   14.5212   -3.0614 H         1 UNK         0.0000 
     98 H98        20.5517   14.4528   -4.7113 H         1 UNK         0.0000 
     99 H99        22.1344   14.8505   -5.3387 H         1 UNK         0.0000 
    100 C100       21.2760   16.3896   -4.0776 C.3       1 UNK         0.0000 
    101 H101       20.7289   16.4747   -3.1370 H         1 UNK         0.0000 
    102 C102       20.4733   17.0188   -5.2034 C.3       1 UNK         0.0000 
    103 H103       22.2276   16.9081   -3.9434 H         1 UNK         0.0000 
    104 H104       19.5598   16.4382   -5.3371 H         1 UNK         0.0000 
    105 H105       21.0567   16.9501   -6.1210 H         1 UNK         0.0000 
    106 C106       20.0530   18.4568   -5.0318 C.2       1 UNK         0.0000 
    107 C107       19.3161   19.0917   -5.9582 C.2       1 UNK         0.0000 
    108 H108       20.3651   18.9793   -4.1367 H         1 UNK         0.0000 
    109 C109       18.8270   18.4510   -7.2530 C.3       1 UNK         0.0000 
    110 H110       19.0395   20.1253   -5.8026 H         1 UNK         0.0000 
    111 H111       18.5577   17.4111   -7.0540 H         1 UNK         0.0000 
    112 C112       19.8671   18.4825   -8.3913 C.3       1 UNK         0.0000 
    113 H113       17.8908   18.9149   -7.5664 H         1 UNK         0.0000 
    114 H114       20.7825   17.9700   -8.0883 H         1 UNK         0.0000 
    115 C115       20.2000   19.9172   -8.8186 C.3       1 UNK         0.0000 
    116 H116       19.4777   17.9165   -9.2411 H         1 UNK         0.0000 
    117 H117       20.5935   20.4683   -7.9616 H         1 UNK         0.0000 
    118 H118       19.2710   20.4134   -9.1039 H         1 UNK         0.0000 
    119 C119       21.2106   20.0191   -9.9695 C.3       1 UNK         0.0000 
    120 H120       22.1796   19.6300   -9.6476 H         1 UNK         0.0000 
    121 C121       21.3503   21.4803  -10.4244 C.3       1 UNK         0.0000 
    122 H122       20.8892   19.3976  -10.8068 H         1 UNK         0.0000 
    123 H123       21.6937   22.0934   -9.5890 H         1 UNK         0.0000 
    124 H124       20.3678   21.8654  -10.7043 H         1 UNK         0.0000 
    125 C125       22.3003   21.6688  -11.6061 C.3       1 UNK         0.0000 
    126 H126       23.3194   21.3789  -11.3481 H         1 UNK         0.0000 
    127 H127       22.3157   22.7188  -11.9058 H         1 UNK         0.0000 
    128 H128       21.9819   21.0815  -12.4686 H         1 UNK         0.0000 
@<TRIPOS>BOND
     1    1    2 2    
     2    1   85 nc   
     3    2    3 1    
     4    2    4 am   BACKBONE|DICT|INTERRES
     5    3   51 1    
     6    3   52 1    
     7    3   53 1    
     8    4    5 1    
     9    4    6 1    
    10    5   85 nc   
    11    6    7 1    
    12    6   54 1    
    13    6   55 1    
    14    7    8 1    
    15    7   56 1    
    16    7   57 1    
    17    8    9 1    
    18    8   58 1    
    19    8   59 1    
    20    9   10 1    
    21    9   11 1    
    22    9   14 1    
    23   11   12 1    
    24   11   13 2    
    25   14   15 am   BACKBONE|DICT|INTERRES
    26   14   60 1    
    27   15   16 2    
    28   15   17 1    
    29   17   19 1    
    30   17   21 1    
    31   17   18 1    
    32   19   20 1    
    33   19   61 1    
    34   19   62 1    
    35   20   63 1    
    36   21   22 am   BACKBONE|DICT|INTERRES
    37   21   64 1    
    38   22   23 2    
    39   22   24 1    
    40   24   25 1    
    41   24   26 1    
    42   24   34 1    
    43   26   27 1    
    44   26   65 1    
    45   26   66 1    
    46   27   28 1    
    47   27   67 1    
    48   27   68 1    
    49   28   29 1    
    50   28   69 1    
    51   28   70 1    
    52   29   30 1    
    53   29   31 am   BACKBONE|DICT|INTERRES
    54   30   85 nc   
    55   31   32 2    
    56   31   33 1    
    57   32   85 nc   
    58   33   71 1    
    59   33   72 1    
    60   33   73 1    
    61   34   35 am   BACKBONE|DICT|INTERRES
    62   34   74 1    
    63   35   36 2    
    64   35   37 1    
    65   37   39 1    
    66   37   47 1    
    67   37   38 1    
    68   39   40 1    
    69   39   75 1    
    70   39   76 1    
    71   40   41 1    
    72   40   77 1    
    73   40   78 1    
    74   41   42 1    
    75   41   79 1    
    76   41   80 1    
    77   42   43 1    
    78   42   44 am   BACKBONE|DICT|INTERRES
    79   43   85 nc   
    80   44   45 2    
    81   44   46 1    
    82   45   85 nc   
    83   46   81 1    
    84   46   82 1    
    85   46   83 1    
    86   47   48 am   BACKBONE|DICT|INTERRES
    87   47   84 1    
    88   48   49 2    
    89   48   50 1    
    90   50   86 1    
    91   50   87 1    
    92   50   88 1    
    93   88   89 1    
    94   88   90 1    
    95   88   91 1    
    96   90   92 1    
    97   90   93 1    
    98   90   94 1    
    99   94   95 1    
   100   94   96 1    
   101   94   97 1    
   102   96   98 1    
   103   96   99 1    
   104   96  100 1    
   105  100  101 1    
   106  100  102 1    
   107  100  103 1    
   108  102  104 1    
   109  102  105 1    
   110  102  106 1    
   111  106  107 2    
   112  106  108 1    
   113  107  109 1    
   114  107  110 1    
   115  109  111 1    
   116  109  112 1    
   117  109  113 1    
   118  112  114 1    
   119  112  115 1    
   120  112  116 1    
   121  115  117 1    
   122  115  118 1    
   123  115  119 1    
   124  119  120 1    
   125  119  121 1    
   126  119  122 1    
   127  121  123 1    
   128  121  124 1    
   129  121  125 1    
   130  125  126 1    
   131  125  127 1    
   132  125  128 1    
@<TRIPOS>SUBSTRUCTURE
     1 UNK         1 GROUP             0       ****    0 ROOT    
