@<TRIPOS>MOLECULE
197_c1
71   79    1
SMALL
USER_CHARGES


@<TRIPOS>ATOM
      1 Fe1         0.8667   -1.8641   -0.8131 Fe        1 UNK         0.0000 
      2 C2          1.4349   -1.2671    4.2243 C.ar      1 UNK         0.0000 
      3 C3          1.7817   -2.6109    4.1068 C.ar      1 UNK         0.0000 
      4 C4          2.0620   -3.1502    2.8498 C.ar      1 UNK         0.0000 
      5 C5          1.9693   -2.3562    1.7132 C.ar      1 UNK         0.0000 
      6 O6          2.2047   -2.8551    0.5628 O.co2     1 UNK         0.0000 
      7 C7          1.5625   -1.0156    1.8347 C.ar      1 UNK         0.0000 
      8 O8          1.3564   -0.3946    0.7623 O.co2     1 UNK         0.0000 
      9 C9          1.3317   -0.4302    3.1103 C.ar      1 UNK         0.0000 
     10 C10         0.9931    1.0359    3.3716 C.2       1 UNK         0.0000 
     11 O11         1.0107    1.4935    4.5294 O.2       1 UNK         0.0000 
     12 N12         0.6551    1.8287    2.3472 N.am      1 UNK         0.0000 
     13 C13         0.2907    3.2518    2.5333 C.3       1 UNK         0.0000 
     14 C14        -0.1828    4.0847    1.3147 C.3       1 UNK         0.0000 
     15 C15        -1.7033    4.1092    0.9765 C.3       1 UNK         0.0000 
     16 N16        -2.1894    2.9820    0.1599 N.am      1 UNK         0.0000 
     17 C17        -2.4798    1.8024    0.7815 C.2       1 UNK         0.0000 
     18 O18        -2.5569    1.7470    2.0156 O.2       1 UNK         0.0000 
     19 C19        -2.7779    0.5448   -0.0939 C.3       1 UNK         0.0000 
     20 H20        -3.6910    0.7408   -0.6432 H         1 UNK         0.0000 
     21 N21        -2.9856   -0.6517    0.6884 N.2       1 UNK         0.0000 
     22 C22        -2.0591   -1.4768    0.3752 C.2       1 UNK         0.0000 
     23 O23        -1.2191   -1.0557   -0.6386 O.3       1 UNK         0.0000 
     24 C24        -1.6059    0.2396   -1.0217 C.3       1 UNK         0.0000 
     25 C25        -1.8458   -2.8252    0.9435 C.ar      1 UNK         0.0000 
     26 C26        -1.0973   -3.8132    0.2802 C.ar      1 UNK         0.0000 
     27 O27        -0.5844   -3.6105   -0.8525 O.co2     1 UNK         0.0000 
     28 C28        -0.9340   -5.0728    0.8517 C.ar      1 UNK         0.0000 
     29 C29        -1.5299   -5.3789    2.0712 C.ar      1 UNK         0.0000 
     30 C30        -2.2815   -4.4069    2.7343 C.ar      1 UNK         0.0000 
     31 C31        -2.4417   -3.1375    2.1750 C.ar      1 UNK         0.0000 
     32 C32        -2.6775    3.3036   -1.2108 C.3       1 UNK         0.0000 
     33 C33        -1.8024    4.2221   -2.1039 C.3       1 UNK         0.0000 
     34 C34        -0.4448    3.6639   -2.5272 C.3       1 UNK         0.0000 
     35 N35        -0.5150    2.4203   -3.2904 N.am      1 UNK         0.0000 
     36 C36         0.6039    1.8349   -3.7560 C.2       1 UNK         0.0000 
     37 O37         1.6441    2.4729   -3.9693 O.2       1 UNK         0.0000 
     38 C38         0.4976    0.3487   -3.9940 C.ar      1 UNK         0.0000 
     39 C39         0.9445   -0.6013   -3.0630 C.ar      1 UNK         0.0000 
     40 O40         1.1531   -0.3579   -1.8528 O.co2     1 UNK         0.0000 
     41 C41         0.9942   -1.9539   -3.3378 C.ar      1 UNK         0.0000 
     42 O42         1.4317   -2.6691   -2.3876 O.co2     1 UNK         0.0000 
     43 C43         0.4378   -2.4426   -4.5099 C.ar      1 UNK         0.0000 
     44 C44        -0.1472   -1.5376   -5.3997 C.ar      1 UNK         0.0000 
     45 C45        -0.0832   -0.1537   -5.1655 C.ar      1 UNK         0.0000 
     46 H46         1.2285   -0.8738    5.2054 H         1 UNK         0.0000 
     47 H47         1.8416   -3.2267    4.9889 H         1 UNK         0.0000 
     48 H48         2.3151   -4.1898    2.7511 H         1 UNK         0.0000 
     49 H49         0.7723    1.3478    1.4512 H         1 UNK         0.0000 
     50 H50        -0.4848    3.2960    3.3018 H         1 UNK         0.0000 
     51 H51         1.1447    3.7728    2.9819 H         1 UNK         0.0000 
     52 H52         0.4423    3.8841    0.4466 H         1 UNK         0.0000 
     53 H53         0.0450    5.1179    1.5830 H         1 UNK         0.0000 
     54 H54        -2.2886    4.1603    1.9001 H         1 UNK         0.0000 
     55 H55        -1.9423    5.0507    0.4703 H         1 UNK         0.0000 
     56 H56        -1.9029    0.2315   -2.0667 H         1 UNK         0.0000 
     57 H57        -0.7651    0.9294   -0.9041 H         1 UNK         0.0000 
     58 H58        -0.3587   -5.8093    0.3188 H         1 UNK         0.0000 
     59 H59        -1.4031   -6.3617    2.4914 H         1 UNK         0.0000 
     60 H60        -2.7496   -4.6217    3.6792 H         1 UNK         0.0000 
     61 H61        -3.0238   -2.3930    2.6920 H         1 UNK         0.0000 
     62 H62        -3.6596    3.7715   -1.1097 H         1 UNK         0.0000 
     63 H63        -2.8545    2.3908   -1.7773 H         1 UNK         0.0000 
     64 H64        -2.3432    4.4301   -3.0279 H         1 UNK         0.0000 
     65 H65        -1.6570    5.2028   -1.6385 H         1 UNK         0.0000 
     66 H66         0.1291    4.4460   -3.0313 H         1 UNK         0.0000 
     67 H67         0.1343    3.4262   -1.6372 H         1 UNK         0.0000 
     68 H68        -1.3491    1.8590   -3.2556 H         1 UNK         0.0000 
     69 H69         0.3633   -3.5071   -4.6807 H         1 UNK         0.0000 
     70 H70        -0.6342   -1.9049   -6.2872 H         1 UNK         0.0000 
     71 H71        -0.5009    0.5224   -5.8937 H         1 UNK         0.0000 
@<TRIPOS>BOND
     1    1    6 nc   
     2    1    8 nc   
     3    1   23 nc   
     4    1   27 nc   
     5    1   40 nc   
     6    1   42 nc   
     7    2   46 1    
     8    2    3 ar   
     9    2    9 ar   
    10    3   47 1    
    11    3    4 ar   
    12    4    5 ar   
    13    4   48 1    
    14    5    7 ar   
    15    5    6 1    
    16    7    9 ar   
    17    7    8 1    
    18    9   10 1    
    19   10   11 2    
    20   10   12 am   BACKBONE|DICT|INTERRES
    21   12   13 1    
    22   12   49 1    
    23   13   51 1    
    24   13   50 1    
    25   13   14 1    
    26   14   53 1    
    27   14   15 1    
    28   14   52 1    
    29   15   54 1    
    30   15   16 1    
    31   15   55 1    
    32   16   17 am   BACKBONE|DICT|INTERRES
    33   16   32 1    
    34   17   18 2    
    35   17   19 1    
    36   19   20 1    
    37   19   21 1    
    38   19   24 1    
    39   21   22 2    
    40   22   25 1    
    41   22   23 1    
    42   23   24 1    
    43   24   57 1    
    44   24   56 1    
    45   25   31 ar   
    46   25   26 ar   
    47   26   28 ar   
    48   26   27 1    
    49   28   29 ar   
    50   28   58 1    
    51   29   59 1    
    52   29   30 ar   
    53   30   60 1    
    54   30   31 ar   
    55   31   61 1    
    56   32   62 1    
    57   32   33 1    
    58   32   63 1    
    59   33   65 1    
    60   33   34 1    
    61   33   64 1    
    62   34   67 1    
    63   34   35 1    
    64   34   66 1    
    65   35   36 am   BACKBONE|DICT|INTERRES
    66   35   68 1    
    67   36   37 2    
    68   36   38 1    
    69   38   39 ar   
    70   38   45 ar   
    71   39   40 1    
    72   39   41 ar   
    73   41   42 1    
    74   41   43 ar   
    75   43   44 ar   
    76   43   69 1    
    77   44   45 ar   
    78   44   70 1    
    79   45   71 1    
@<TRIPOS>SUBSTRUCTURE
     1 UNK         1 GROUP             0       ****    0 ROOT    
