@<TRIPOS>MOLECULE
056_c1
131   136    1
SMALL
USER_CHARGES


@<TRIPOS>ATOM
      1 Fe1        -1.2454    3.0787   -0.5295 Fe        1 UNK         0.0000 
      2 O2          2.7792    7.5445   -4.7471 O.3       1 UNK         0.0000 
      3 C3          1.7745    6.6521   -5.1873 C.3       1 UNK         0.0000 
      4 C4          1.5073    5.5546   -4.1383 C.3       1 UNK         0.0000 
      5 C5          2.5562    4.4465   -3.9143 C.2       1 UNK         0.0000 
      6 C6          3.9259    4.6533   -4.5297 C.3       1 UNK         0.0000 
      7 C7          2.3043    3.3125   -3.2174 C.2       1 UNK         0.0000 
      8 C8          1.0591    3.0375   -2.5481 C.2       1 UNK         0.0000 
      9 O9          0.3726    3.8707   -1.9122 O.co2     1 UNK         0.0000 
     10 N10         0.5628    1.7790   -2.5519 N.am      1 UNK         0.0000 
     11 O11        -0.5623    1.6577   -1.9337 O.co2     1 UNK         0.0000 
     12 C12         1.0771    0.4922   -3.0846 C.3       1 UNK         0.0000 
     13 C13         0.1905   -0.7659   -2.7418 C.3       1 UNK         0.0000 
     14 C14         0.2248   -1.9411   -3.6976 C.3       1 UNK         0.0000 
     15 C15        -0.8618   -3.0125   -3.4032 C.3       1 UNK         0.0000 
     16 H16        -0.8872   -3.4698   -4.3952 H         1 UNK         0.0000 
     17 C17        -0.3983   -4.2175   -2.5766 C.2       1 UNK         0.0000 
     18 O18         0.4329   -4.1101   -1.6756 O.2       1 UNK         0.0000 
     19 N19        -0.8924   -5.3734   -3.0348 N.am      1 UNK         0.0000 
     20 C20        -0.3585   -6.7083   -2.8188 C.3       1 UNK         0.0000 
     21 H21        -1.0031   -7.3764   -3.3922 H         1 UNK         0.0000 
     22 C22         1.0747   -6.8227   -3.4149 C.3       1 UNK         0.0000 
     23 O23         1.0614   -6.5108   -4.8037 O.3       1 UNK         0.0000 
     24 C24        -0.5300   -7.1513   -1.3600 C.2       1 UNK         0.0000 
     25 O25        -1.6657   -7.1595   -0.8938 O.2       1 UNK         0.0000 
     26 N26         0.5511   -7.6007   -0.7007 N.am      1 UNK         0.0000 
     27 C27         0.5428   -8.1498    0.6562 C.3       1 UNK         0.0000 
     28 H28         1.5759   -8.4244    0.8711 H         1 UNK         0.0000 
     29 C29        -0.2896   -9.4506    0.7231 C.3       1 UNK         0.0000 
     30 C30         0.1585   -7.1271    1.7445 C.2       1 UNK         0.0000 
     31 O31        -0.6165   -7.4559    2.6375 O.2       1 UNK         0.0000 
     32 N32         0.7966   -5.9469    1.6867 N.am      1 UNK         0.0000 
     33 C33         0.8054   -4.9718    2.7716 C.3       1 UNK         0.0000 
     34 C34        -0.5626   -4.3429    3.0482 C.2       1 UNK         0.0000 
     35 O35        -1.0685   -4.5518    4.1483 O.2       1 UNK         0.0000 
     36 N36        -1.1267   -3.5307    2.1162 N.am      1 UNK         0.0000 
     37 C37        -2.3553   -2.7652    2.4033 C.3       1 UNK         0.0000 
     38 H38        -2.8316   -3.3836    3.1640 H         1 UNK         0.0000 
     39 C39        -2.1520   -1.4883    3.2923 C.3       1 UNK         0.0000 
     40 C40        -1.5192   -0.3023    2.5575 C.3       1 UNK         0.0000 
     41 C41        -1.0374    1.0177    3.2960 C.3       1 UNK         0.0000 
     42 N42        -0.7235    2.1434    2.3570 N.am      1 UNK         0.0000 
     43 O43        -0.9112    1.8182    1.1162 O.co2     1 UNK         0.0000 
     44 C44        -0.5402    3.4938    2.5052 C.2       1 UNK         0.0000 
     45 O45        -0.7267    4.1491    1.4461 O.co2     1 UNK         0.0000 
     46 C46         0.0305    4.0148    3.7318 C.2       1 UNK         0.0000 
     47 C47         0.3611    5.3092    4.0112 C.2       1 UNK         0.0000 
     48 C48         0.1359    6.5278    3.1075 C.3       1 UNK         0.0000 
     49 C49         1.0442    5.6176    5.3488 C.3       1 UNK         0.0000 
     50 C50         1.3713    7.0870    5.7157 C.3       1 UNK         0.0000 
     51 O51         0.2004    7.8475    5.9621 O.3       1 UNK         0.0000 
     52 C52        -3.5258   -2.8492    1.3653 C.2       1 UNK         0.0000 
     53 O53        -4.5621   -3.3625    1.7781 O.2       1 UNK         0.0000 
     54 N54        -3.5235   -2.5394    0.0421 N.am      1 UNK         0.0000 
     55 C55        -2.9026   -1.6594   -0.9682 C.3       1 UNK         0.0000 
     56 H56        -1.8434   -1.4941   -0.7919 H         1 UNK         0.0000 
     57 C57        -3.1794   -2.4051   -2.3079 C.2       1 UNK         0.0000 
     58 O58        -4.3474   -2.7281   -2.5124 O.2       1 UNK         0.0000 
     59 N59        -2.2900   -2.6501   -3.2995 N.am      1 UNK         0.0000 
     60 C60        -3.7191   -0.3002   -0.9990 C.3       1 UNK         0.0000 
     61 C61        -3.8024    0.6020   -2.2988 C.3       1 UNK         0.0000 
     62 C62        -4.4852    2.0317   -2.1378 C.3       1 UNK         0.0000 
     63 N63        -3.7573    3.0601   -1.3489 N.am      1 UNK         0.0000 
     64 O64        -2.7711    2.5498   -0.6891 O.co2     1 UNK         0.0000 
     65 C65        -3.4783    4.3844   -1.6195 C.2       1 UNK         0.0000 
     66 O66        -2.3189    4.6677   -1.2059 O.co2     1 UNK         0.0000 
     67 C67        -4.3397    5.3042   -2.3355 C.2       1 UNK         0.0000 
     68 C68        -5.6918    5.4089   -2.3659 C.2       1 UNK         0.0000 
     69 C69        -6.6911    4.5081   -1.6521 C.3       1 UNK         0.0000 
     70 C70        -6.2879    6.5648   -3.1816 C.3       1 UNK         0.0000 
     71 C71        -7.8026    6.8211   -3.1465 C.3       1 UNK         0.0000 
     72 O72        -8.0363    7.9874   -3.9064 O.3       1 UNK         0.0000 
     73 H73         3.0903    8.0621   -5.4918 H         1 UNK         0.0000 
     74 H74         2.0434    6.2294   -6.1536 H         1 UNK         0.0000 
     75 H75         0.8593    7.2269   -5.3498 H         1 UNK         0.0000 
     76 H76         0.5654    5.0705   -4.4025 H         1 UNK         0.0000 
     77 H77         1.3235    6.0325   -3.1782 H         1 UNK         0.0000 
     78 H78         4.3738    5.5540   -4.1115 H         1 UNK         0.0000 
     79 H79         3.8526    4.7456   -5.6129 H         1 UNK         0.0000 
     80 H80         4.5986    3.8221   -4.3116 H         1 UNK         0.0000 
     81 H81         3.0564    2.5455   -3.1191 H         1 UNK         0.0000 
     82 H82         1.1203    0.6142   -4.1655 H         1 UNK         0.0000 
     83 H83         2.0991    0.3104   -2.7437 H         1 UNK         0.0000 
     84 H84         0.3916   -1.0951   -1.7221 H         1 UNK         0.0000 
     85 H85        -0.8614   -0.4914   -2.7700 H         1 UNK         0.0000 
     86 H86         1.2132   -2.4027   -3.6578 H         1 UNK         0.0000 
     87 H87         0.1011   -1.5791   -4.7222 H         1 UNK         0.0000 
     88 H88        -1.6431   -5.3252   -3.6977 H         1 UNK         0.0000 
     89 H89         1.7819   -6.1568   -2.9159 H         1 UNK         0.0000 
     90 H90         1.4590   -7.8378   -3.3032 H         1 UNK         0.0000 
     91 H91         0.6312   -7.2157   -5.2915 H         1 UNK         0.0000 
     92 H92         1.4523   -7.5493   -1.1434 H         1 UNK         0.0000 
     93 H93        -1.3479   -9.2657    0.5355 H         1 UNK         0.0000 
     94 H94        -0.2213   -9.9025    1.7119 H         1 UNK         0.0000 
     95 H95         0.0574  -10.1869   -0.0010 H         1 UNK         0.0000 
     96 H96         1.4173   -5.7844    0.9123 H         1 UNK         0.0000 
     97 H97         1.5182   -4.1781    2.5567 H         1 UNK         0.0000 
     98 H98         1.1391   -5.4622    3.6923 H         1 UNK         0.0000 
     99 H99        -0.6883   -3.3839    1.2209 H         1 UNK         0.0000 
    100 H100       -1.5431   -1.7502    4.1587 H         1 UNK         0.0000 
    101 H101       -3.1201   -1.1805    3.6924 H         1 UNK         0.0000 
    102 H102       -0.6803   -0.6727    1.9709 H         1 UNK         0.0000 
    103 H103       -2.2880   -0.0125    1.8430 H         1 UNK         0.0000 
    104 H104       -1.8088    1.3646    3.9810 H         1 UNK         0.0000 
    105 H105       -0.1842    0.7756    3.9343 H         1 UNK         0.0000 
    106 H106        0.2496    3.2666    4.4795 H         1 UNK         0.0000 
    107 H107       -0.3609    6.3283    2.1689 H         1 UNK         0.0000 
    108 H108       -0.4898    7.2659    3.6089 H         1 UNK         0.0000 
    109 H109        1.0885    6.9947    2.8608 H         1 UNK         0.0000 
    110 H110        1.9930    5.0781    5.3269 H         1 UNK         0.0000 
    111 H111        0.4603    5.1645    6.1520 H         1 UNK         0.0000 
    112 H112        1.9972    7.1175    6.6095 H         1 UNK         0.0000 
    113 H113        1.9501    7.5662    4.9236 H         1 UNK         0.0000 
    114 H114       -0.2760    7.4797    6.7086 H         1 UNK         0.0000 
    115 H115       -4.3524   -2.9160   -0.3970 H         1 UNK         0.0000 
    116 H116       -2.7793   -2.9483   -4.1235 H         1 UNK         0.0000 
    117 H117       -4.7642   -0.5362   -0.8011 H         1 UNK         0.0000 
    118 H118       -3.4240    0.2656   -0.1207 H         1 UNK         0.0000 
    119 H119       -4.3831    0.0603   -3.0502 H         1 UNK         0.0000 
    120 H120       -2.8130    0.7395   -2.7299 H         1 UNK         0.0000 
    121 H121       -5.4209    1.8687   -1.6036 H         1 UNK         0.0000 
    122 H122       -4.7477    2.4388   -3.1175 H         1 UNK         0.0000 
    123 H123       -3.7540    6.0100   -2.8971 H         1 UNK         0.0000 
    124 H124       -7.2883    3.9642   -2.3906 H         1 UNK         0.0000 
    125 H125       -7.3487    5.0977   -1.0156 H         1 UNK         0.0000 
    126 H126       -6.2188    3.7869   -0.9891 H         1 UNK         0.0000 
    127 H127       -5.9945    6.4326   -4.2191 H         1 UNK         0.0000 
    128 H128       -5.7932    7.4758   -2.8521 H         1 UNK         0.0000 
    129 H129       -8.3582    5.9887   -3.5768 H         1 UNK         0.0000 
    130 H130       -8.1642    6.9748   -2.1303 H         1 UNK         0.0000 
    131 H131       -8.9623    8.2347   -3.8668 H         1 UNK         0.0000 
@<TRIPOS>BOND
     1    1    9 nc   
     2    1   11 nc   
     3    1   43 nc   
     4    1   45 nc   
     5    1   64 nc   
     6    1   66 nc   
     7    2    3 1    
     8    2   73 1    
     9    3    4 1    
    10    3   74 1    
    11    3   75 1    
    12    4    5 1    
    13    4   77 1    
    14    4   76 1    
    15    5    7 2    
    16    5    6 1    
    17    6   80 1    
    18    6   78 1    
    19    6   79 1    
    20    7   81 1    
    21    7    8 1    
    22    8   10 am   BACKBONE|DICT|INTERRES
    23    8    9 2    
    24   10   11 1    
    25   10   12 1    
    26   12   13 1    
    27   12   83 1    
    28   12   82 1    
    29   13   84 1    
    30   13   14 1    
    31   13   85 1    
    32   14   15 1    
    33   14   86 1    
    34   14   87 1    
    35   15   16 1    
    36   15   59 1    
    37   15   17 1    
    38   17   18 2    
    39   17   19 am   BACKBONE|DICT|INTERRES
    40   19   20 1    
    41   19   88 1    
    42   20   21 1    
    43   20   24 1    
    44   20   22 1    
    45   22   90 1    
    46   22   89 1    
    47   22   23 1    
    48   23   91 1    
    49   24   25 2    
    50   24   26 am   BACKBONE|DICT|INTERRES
    51   26   27 1    
    52   26   92 1    
    53   27   29 1    
    54   27   28 1    
    55   27   30 1    
    56   29   94 1    
    57   29   93 1    
    58   29   95 1    
    59   30   32 am   BACKBONE|DICT|INTERRES
    60   30   31 2    
    61   32   33 1    
    62   32   96 1    
    63   33   34 1    
    64   33   98 1    
    65   33   97 1    
    66   34   35 2    
    67   34   36 am   BACKBONE|DICT|INTERRES
    68   36   37 1    
    69   36   99 1    
    70   37   39 1    
    71   37   38 1    
    72   37   52 1    
    73   39  101 1    
    74   39  100 1    
    75   39   40 1    
    76   40   41 1    
    77   40  102 1    
    78   40  103 1    
    79   41  105 1    
    80   41  104 1    
    81   41   42 1    
    82   42   44 am   BACKBONE|DICT|INTERRES
    83   42   43 1    
    84   44   46 1    
    85   44   45 2    
    86   46   47 2    
    87   46  106 1    
    88   47   49 1    
    89   47   48 1    
    90   48  108 1    
    91   48  107 1    
    92   48  109 1    
    93   49  110 1    
    94   49   50 1    
    95   49  111 1    
    96   50   51 1    
    97   50  112 1    
    98   50  113 1    
    99   51  114 1    
   100   52   53 2    
   101   52   54 am   BACKBONE|DICT|INTERRES
   102   54   55 1    
   103   54  115 1    
   104   55   56 1    
   105   55   57 1    
   106   55   60 1    
   107   57   58 2    
   108   57   59 am   BACKBONE|DICT|INTERRES
   109   59  116 1    
   110   60  117 1    
   111   60  118 1    
   112   60   61 1    
   113   61   62 1    
   114   61  119 1    
   115   61  120 1    
   116   62  121 1    
   117   62   63 1    
   118   62  122 1    
   119   63   65 am   BACKBONE|DICT|INTERRES
   120   63   64 1    
   121   65   67 1    
   122   65   66 2    
   123   67   68 2    
   124   67  123 1    
   125   68   69 1    
   126   68   70 1    
   127   69  126 1    
   128   69  125 1    
   129   69  124 1    
   130   70  128 1    
   131   70   71 1    
   132   70  127 1    
   133   71  130 1    
   134   71   72 1    
   135   71  129 1    
   136   72  131 1    
@<TRIPOS>SUBSTRUCTURE
     1 UNK         1 GROUP             0       ****    0 ROOT    
