@<TRIPOS>MOLECULE
036_c1
90   97    1
SMALL
USER_CHARGES


@<TRIPOS>ATOM
      1 Fe1         1.5905   -0.2165    1.6858 Fe        1 UNK         0.0000 
      2 C2          0.0897   -2.3636    6.4484 C.ar      1 UNK         0.0000 
      3 C3          1.2912   -3.0805    6.2615 C.ar      1 UNK         0.0000 
      4 C4          2.0663   -2.8681    5.1049 C.ar      1 UNK         0.0000 
      5 C5          1.6364   -1.8971    4.1953 C.ar      1 UNK         0.0000 
      6 O6          2.1768   -1.5578    3.0250 O.co2     1 UNK         0.0000 
      7 C7          0.5516   -1.1851    4.3895 C.ar      1 UNK         0.0000 
      8 O8          0.4602   -0.2559    3.4217 O.co2     1 UNK         0.0000 
      9 C9         -0.3133   -1.4222    5.4809 C.ar      1 UNK         0.0000 
     10 C10        -1.6526   -0.7957    5.5057 C.2       1 UNK         0.0000 
     11 O11        -2.1949   -0.4548    6.5458 O.2       1 UNK         0.0000 
     12 N12        -2.3033   -0.7429    4.3147 N.am      1 UNK         0.0000 
     13 C13        -3.6022   -0.1604    4.0601 C.3       1 UNK         0.0000 
     14 C14        -3.9347   -0.3209    2.5569 C.3       1 UNK         0.0000 
     15 C15        -2.8776    0.3777    1.6713 C.3       1 UNK         0.0000 
     16 C16        -3.0901    0.1234    0.1724 C.3       1 UNK         0.0000 
     17 C17        -2.0485    0.8589   -0.7110 C.3       1 UNK         0.0000 
     18 H18        -2.4237    0.7252   -1.7482 H         1 UNK         0.0000 
     19 C19        -0.6238    0.2119   -0.6997 C.2       1 UNK         0.0000 
     20 O20         0.0053    0.0050    0.3394 O.co2     1 UNK         0.0000 
     21 N21        -0.1224   -0.2161   -1.9048 N.am      1 UNK         0.0000 
     22 C22         1.1655   -0.8436   -2.2204 C.3       1 UNK         0.0000 
     23 H23         1.5662   -0.2848   -3.0982 H         1 UNK         0.0000 
     24 C24         2.2307   -0.7340   -1.1509 C.2       1 UNK         0.0000 
     25 O25         2.1058   -1.3469    0.0473 O.co2     1 UNK         0.0000 
     26 O26         3.2488   -0.1015   -1.3865 O.co2     1 UNK         0.0000 
     27 C27         0.9050   -2.2971   -2.6729 C.3       1 UNK         0.0000 
     28 C28         2.1036   -3.0006   -3.2786 C.ar      1 UNK         0.0000 
     29 C29         3.2180   -3.3621   -2.4983 C.ar      1 UNK         0.0000 
     30 C30         4.3027   -4.0278   -3.0774 C.ar      1 UNK         0.0000 
     31 C31         4.2880   -4.3420   -4.4379 C.ar      1 UNK         0.0000 
     32 C32         3.1868   -3.9937   -5.2219 C.ar      1 UNK         0.0000 
     33 C33         2.0992   -3.3298   -4.6474 C.ar      1 UNK         0.0000 
     34 N34        -2.1480    2.3072   -0.4736 N.am      1 UNK         0.0000 
     35 C35        -1.4678    3.2687   -1.1553 C.2       1 UNK         0.0000 
     36 O36        -0.5280    2.9681   -1.8774 O.2       1 UNK         0.0000 
     37 C37        -1.9640    4.7232   -1.1174 C.3       1 UNK         0.0000 
     38 H38        -2.9170    4.7878   -0.5451 H         1 UNK         0.0000 
     39 N39        -2.2549    5.1514   -2.4933 N.4       1 UNK         0.0000 
     40 H40        -1.3829    5.1605   -3.0724 H         1 UNK         0.0000 
     41 H41        -2.6693    6.1122   -2.4935 H         1 UNK         0.0000 
     42 H42        -2.9500    4.5026   -2.9302 H         1 UNK         0.0000 
     43 C43        -0.9863    5.7192   -0.4580 C.3       1 UNK         0.0000 
     44 C44        -0.9185    5.5967    1.0778 C.3       1 UNK         0.0000 
     45 C45         0.1300    6.6093    1.6194 C.3       1 UNK         0.0000 
     46 C46         0.5199    6.4881    3.1194 C.3       1 UNK         0.0000 
     47 N47         1.4068    5.3808    3.5103 N.am      1 UNK         0.0000 
     48 C48         1.8245    4.3619    2.7075 C.2       1 UNK         0.0000 
     49 O49         1.4677    4.2957    1.5479 O.2       1 UNK         0.0000 
     50 C50         2.7954    3.3315    3.1061 C.ar      1 UNK         0.0000 
     51 C51         2.7215    2.0903    2.4798 C.ar      1 UNK         0.0000 
     52 O52         1.8397    1.4474    1.7031 O.co2     1 UNK         0.0000 
     53 C53         3.5454    1.2503    2.4978 C.ar      1 UNK         0.0000 
     54 O54         2.9554    0.4094    1.5785 O.co2     1 UNK         0.0000 
     55 C55         4.7152    1.3109    3.2619 C.ar      1 UNK         0.0000 
     56 C56         4.8710    2.4755    4.0628 C.ar      1 UNK         0.0000 
     57 C57         3.8983    3.5172    3.9760 C.ar      1 UNK         0.0000 
     58 H58        -0.5388   -2.5833    7.3022 H         1 UNK         0.0000 
     59 H59         1.5939   -3.8263    6.9849 H         1 UNK         0.0000 
     60 H60         2.9664   -3.4413    4.9252 H         1 UNK         0.0000 
     61 H61        -1.8355   -1.2087    3.5265 H         1 UNK         0.0000 
     62 H62        -3.5853    0.9190    4.3230 H         1 UNK         0.0000 
     63 H63        -4.3720   -0.6733    4.6751 H         1 UNK         0.0000 
     64 H64        -4.9382    0.1086    2.3479 H         1 UNK         0.0000 
     65 H65        -3.9615   -1.4060    2.3135 H         1 UNK         0.0000 
     66 H66        -1.8622    0.0253    1.8878 H         1 UNK         0.0000 
     67 H67        -2.9061    1.4574    1.9191 H         1 UNK         0.0000 
     68 H68        -4.1048    0.4961   -0.0924 H         1 UNK         0.0000 
     69 H69        -3.0580   -0.9660   -0.0479 H         1 UNK         0.0000 
     70 H70        -0.7254   -0.0981   -2.7331 H         1 UNK         0.0000 
     71 H71         0.5046   -2.9002   -1.8296 H         1 UNK         0.0000 
     72 H72         0.1045   -2.2482   -3.4442 H         1 UNK         0.0000 
     73 H73         3.2519   -3.1470   -1.4408 H         1 UNK         0.0000 
     74 H74         5.1538   -4.3048   -2.4689 H         1 UNK         0.0000 
     75 H75         5.1276   -4.8593   -4.8835 H         1 UNK         0.0000 
     76 H76         3.1736   -4.2404   -6.2757 H         1 UNK         0.0000 
     77 H77         1.2549   -3.0720   -5.2747 H         1 UNK         0.0000 
     78 H78        -2.9137    2.6423    0.1281 H         1 UNK         0.0000 
     79 H79        -1.3270    6.7569   -0.6709 H         1 UNK         0.0000 
     80 H80         0.0177    5.5874   -0.9188 H         1 UNK         0.0000 
     81 H81        -1.9076    5.8167    1.5348 H         1 UNK         0.0000 
     82 H82        -0.7153    4.5443    1.3315 H         1 UNK         0.0000 
     83 H83         1.0710    6.5821    1.0258 H         1 UNK         0.0000 
     84 H84        -0.3006    7.6204    1.4544 H         1 UNK         0.0000 
     85 H85        -0.3960    6.4795    3.7469 H         1 UNK         0.0000 
     86 H86         1.0783    7.4198    3.3537 H         1 UNK         0.0000 
     87 H87         1.7388    5.3881    4.4855 H         1 UNK         0.0000 
     88 H88         5.4451    0.5119    3.2551 H         1 UNK         0.0000 
     89 H89         5.7418    2.5901    4.6949 H         1 UNK         0.0000 
     90 H90         4.0409    4.4437    4.5161 H         1 UNK         0.0000 
@<TRIPOS>BOND
     1    1    6 nc   
     2    1    8 nc   
     3    1   20 nc   
     4    1   25 nc   
     5    1   52 nc   
     6    1   54 nc   
     7    2   58 1    
     8    2    3 ar   
     9    2    9 ar   
    10    3   59 1    
    11    3    4 ar   
    12    4    5 ar   
    13    4   60 1    
    14    5    7 ar   
    15    5    6 1    
    16    7    9 ar   
    17    7    8 1    
    18    9   10 1    
    19   10   11 2    
    20   10   12 am   BACKBONE|DICT|INTERRES
    21   12   13 1    
    22   12   61 1    
    23   13   62 1    
    24   13   63 1    
    25   13   14 1    
    26   14   15 1    
    27   14   64 1    
    28   14   65 1    
    29   15   66 1    
    30   15   67 1    
    31   15   16 1    
    32   16   17 1    
    33   16   68 1    
    34   16   69 1    
    35   17   18 1    
    36   17   34 1    
    37   17   19 1    
    38   19   20 2    
    39   19   21 am   BACKBONE|DICT|INTERRES
    40   21   22 1    
    41   21   70 1    
    42   22   23 1    
    43   22   24 1    
    44   22   27 1    
    45   24   25 1    
    46   24   26 2    
    47   27   71 1    
    48   27   28 1    
    49   27   72 1    
    50   28   29 ar   
    51   28   33 ar   
    52   29   73 1    
    53   29   30 ar   
    54   30   74 1    
    55   30   31 ar   
    56   31   32 ar   
    57   31   75 1    
    58   32   33 ar   
    59   32   76 1    
    60   33   77 1    
    61   34   78 1    
    62   34   35 am   BACKBONE|DICT|INTERRES
    63   35   37 1    
    64   35   36 2    
    65   37   38 1    
    66   37   43 1    
    67   37   39 1    
    68   39   40 1    
    69   39   41 1    
    70   39   42 1    
    71   43   44 1    
    72   43   79 1    
    73   43   80 1    
    74   44   82 1    
    75   44   81 1    
    76   44   45 1    
    77   45   46 1    
    78   45   83 1    
    79   45   84 1    
    80   46   86 1    
    81   46   47 1    
    82   46   85 1    
    83   47   87 1    
    84   47   48 am   BACKBONE|DICT|INTERRES
    85   48   50 1    
    86   48   49 2    
    87   50   57 ar   
    88   50   51 ar   
    89   51   53 ar   
    90   51   52 1    
    91   53   55 ar   
    92   53   54 1    
    93   55   56 ar   
    94   55   88 1    
    95   56   89 1    
    96   56   57 ar   
    97   57   90 1    
@<TRIPOS>SUBSTRUCTURE
     1 UNK         1 GROUP             0       ****    0 ROOT    
