@<TRIPOS>MOLECULE
179_B1_c1
46   53    1
SMALL
USER_CHARGES


@<TRIPOS>ATOM
      1 Fe1        -0.0811   -0.1270    0.0396 Fe        1 UNK         0.0000 
      2 O2          0.5450    2.3736    0.9379 O.co2     1 UNK         0.0000 
      3 C3          1.6342    2.8596    1.3236 C.2       1 UNK         0.0000 
      4 O4          1.9251    4.0892    1.2439 O.co2     1 UNK         0.0000 
      5 C5          2.6163    2.0662    2.2373 C.3       1 UNK         0.0000 
      6 H6          2.5397    2.4090    3.2683 H         1 UNK         0.0000 
      7 C7          4.0057    1.8843    1.6422 C.3       1 UNK         0.0000 
      8 N8          3.2772    0.7361    2.1404 N.3       1 UNK         0.0000 
      9 C9          2.9396   -0.4744    1.3305 C.3       1 UNK         0.0000 
     10 O10         2.7977   -0.1330   -0.0298 O.co2     1 UNK         0.0000 
     11 C11         1.8643   -1.4419    2.0062 C.ar      1 UNK         0.0000 
     12 C12         1.0409   -2.4589    1.3922 C.ar      1 UNK         0.0000 
     13 O13         0.9564   -2.7345    0.1476 O.co2     1 UNK         0.0000 
     14 C14         0.1590   -3.2175    2.1665 C.ar      1 UNK         0.0000 
     15 C15         0.0753   -3.0720    3.5453 C.ar      1 UNK         0.0000 
     16 C16         0.8923   -2.1458    4.1732 C.ar      1 UNK         0.0000 
     17 C17         1.7634   -1.3564    3.4195 C.ar      1 UNK         0.0000 
     18 H18         4.8656    2.2186    2.2155 H         1 UNK         0.0000 
     19 H19         4.1239    1.9944    0.5587 H         1 UNK         0.0000 
     20 H20        -0.5183   -3.8938    1.6725 H         1 UNK         0.0000 
     21 H21        -0.6428   -3.6363    4.1078 H         1 UNK         0.0000 
     22 H22         0.8410   -2.0028    5.2403 H         1 UNK         0.0000 
     23 H23         2.3330   -0.6275    3.9745 H         1 UNK         0.0000 
     24 O24        -1.4690    0.0472    2.5394 O.co2     1 UNK         0.0000 
     25 C25        -1.8235    1.1385    3.0206 C.2       1 UNK         0.0000 
     26 O26        -1.9112    1.4178    4.2533 O.co2     1 UNK         0.0000 
     27 C27        -2.5724    2.1347    2.1137 C.3       1 UNK         0.0000 
     28 H28        -2.4860    3.1691    2.4496 H         1 UNK         0.0000 
     29 C29        -3.9198    1.5906    1.6758 C.3       1 UNK         0.0000 
     30 N30        -2.9575    2.0172    0.6945 N.am      1 UNK         0.0000 
     31 C31        -2.3606    1.2127   -0.3129 C.2       1 UNK         0.0000 
     32 O32        -2.6602    0.0146   -0.4315 O.co2     1 UNK         0.0000 
     33 C33        -1.6677    2.0374   -1.4202 C.ar      1 UNK         0.0000 
     34 C34        -1.0452    1.4528   -2.5532 C.ar      1 UNK         0.0000 
     35 O35        -1.0341    0.2024   -2.7497 O.co2     1 UNK         0.0000 
     36 C36        -0.3179    2.2356   -3.4558 C.ar      1 UNK         0.0000 
     37 C37        -0.2405    3.6169   -3.3087 C.ar      1 UNK         0.0000 
     38 C38        -0.9021    4.2295   -2.2525 C.ar      1 UNK         0.0000 
     39 C39        -1.6015    3.4511   -1.3241 C.ar      1 UNK         0.0000 
     40 H40        -4.8021    2.2069    1.8246 H         1 UNK         0.0000 
     41 H41        -4.1089    0.5152    1.7560 H         1 UNK         0.0000 
     42 H42         0.2500    1.7477   -4.2320 H         1 UNK         0.0000 
     43 H43         0.3675    4.2004   -3.9779 H         1 UNK         0.0000 
     44 H44        -0.8413    5.2984   -2.1042 H         1 UNK         0.0000 
     45 H45        -2.0241    3.9538   -0.4703 H         1 UNK         0.0000 
     46 H46         3.8370   -1.0800    1.4452 H         1 UNK         0.0000 
@<TRIPOS>BOND
     1    1    2 nc   
     2    1   10 nc   
     3    1   13 nc   
     4    1   24 nc   
     5    1   32 nc   
     6    1   35 nc   
     7    2    3 1    
     8    3    5 1    
     9    3    4 2    
    10    5    6 1    
    11    5    7 1    
    12    5    8 1    
    13    7   18 1    
    14    7    8 1    
    15    7   19 1    
    16    8    9 1    
    17    9   11 1    
    18    9   10 1    
    19    9   46 1    
    20   11   17 ar   
    21   11   12 ar   
    22   12   14 ar   
    23   12   13 1    
    24   14   15 ar   
    25   14   20 1    
    26   15   21 1    
    27   15   16 ar   
    28   16   22 1    
    29   16   17 ar   
    30   17   23 1    
    31   24   25 1    
    32   25   26 2    
    33   25   27 1    
    34   27   29 1    
    35   27   28 1    
    36   27   30 1    
    37   29   40 1    
    38   29   30 1    
    39   29   41 1    
    40   30   31 am   BACKBONE|DICT|INTERRES
    41   31   33 1    
    42   31   32 2    
    43   33   39 ar   
    44   33   34 ar   
    45   34   35 1    
    46   34   36 ar   
    47   36   37 ar   
    48   36   42 1    
    49   37   38 ar   
    50   37   43 1    
    51   38   44 1    
    52   38   39 ar   
    53   39   45 1    
@<TRIPOS>SUBSTRUCTURE
     1 UNK         1 GROUP             0       ****    0 ROOT    
