@<TRIPOS>MOLECULE
071_c1
48   54    1
SMALL
USER_CHARGES


@<TRIPOS>ATOM
      1 Fe1         0.0147   -0.2501    1.0972 Fe        1 UNK         0.0000 
      2 C2         -0.0935   -3.9825   -1.1695 C.ar      1 UNK         0.0000 
      3 C3         -0.9634   -4.5138   -0.2290 C.ar      1 UNK         0.0000 
      4 C4         -1.0519   -3.8860    0.9994 C.ar      1 UNK         0.0000 
      5 C5         -0.1635   -2.8452    1.2887 C.ar      1 UNK         0.0000 
      6 O6         -0.5027   -1.8921    2.1671 O.co2     1 UNK         0.0000 
      7 C7          0.9186   -2.4543    0.5052 C.ar      1 UNK         0.0000 
      8 O8          1.6865   -1.3382    1.0227 O.co2     1 UNK         0.0000 
      9 C9          0.7883   -2.9322   -0.8309 C.ar      1 UNK         0.0000 
     10 C10         1.2818   -2.2149   -1.9803 C.2       1 UNK         0.0000 
     11 O11         2.4326   -2.4104   -2.3436 O.2       1 UNK         0.0000 
     12 N12         0.4589   -1.3649   -2.7042 N.am      1 UNK         0.0000 
     13 C13        -0.9370   -0.8084   -2.4312 C.3       1 UNK         0.0000 
     14 C14        -1.0341   -0.1916   -1.0422 C.2       1 UNK         0.0000 
     15 O15         0.0156    0.2986   -0.6432 O.co2     1 UNK         0.0000 
     16 O16        -1.6428   -0.2662    0.0164 O.co2     1 UNK         0.0000 
     17 C17        -1.0223    0.4479   -3.3933 C.3       1 UNK         0.0000 
     18 C18        -1.8519    1.7186   -3.0062 C.3       1 UNK         0.0000 
     19 C19        -1.1041    3.0037   -3.4935 C.3       1 UNK         0.0000 
     20 C20        -1.4753    4.3093   -2.7614 C.3       1 UNK         0.0000 
     21 N21        -1.4963    4.1550   -1.3067 N.am      1 UNK         0.0000 
     22 C22        -0.4757    3.6914   -0.4997 C.2       1 UNK         0.0000 
     23 O23         0.6103    3.3995   -0.9773 O.2       1 UNK         0.0000 
     24 C24        -0.7985    3.3130    0.9158 C.ar      1 UNK         0.0000 
     25 C25        -0.2185    2.1947    1.5805 C.ar      1 UNK         0.0000 
     26 O26         0.7879    1.2490    1.2992 O.co2     1 UNK         0.0000 
     27 C27        -0.8110    1.6735    2.6198 C.ar      1 UNK         0.0000 
     28 O28        -0.2563    0.4483    2.7209 O.co2     1 UNK         0.0000 
     29 C29        -1.8910    2.2213    3.2968 C.ar      1 UNK         0.0000 
     30 C30        -2.4219    3.4049    2.7785 C.ar      1 UNK         0.0000 
     31 C31        -1.9046    3.9314    1.5782 C.ar      1 UNK         0.0000 
     32 H32        -0.1683   -4.3385   -2.1921 H         1 UNK         0.0000 
     33 H33        -1.6722   -5.2828   -0.5094 H         1 UNK         0.0000 
     34 H34        -1.8775   -4.1237    1.6584 H         1 UNK         0.0000 
     35 H35         0.9536   -0.9887   -3.5301 H         1 UNK         0.0000 
     36 H36        -1.1235    0.1733   -4.4638 H         1 UNK         0.0000 
     37 H37         0.0089    0.8454   -3.3049 H         1 UNK         0.0000 
     38 H38        -2.9145    1.6544   -3.3152 H         1 UNK         0.0000 
     39 H39        -1.8690    1.8244   -1.9136 H         1 UNK         0.0000 
     40 H40        -1.1904    3.1070   -4.5962 H         1 UNK         0.0000 
     41 H41        -0.0202    2.9075   -3.2782 H         1 UNK         0.0000 
     42 H42        -0.7684    5.1149   -3.0539 H         1 UNK         0.0000 
     43 H43        -2.4927    4.6070   -3.0990 H         1 UNK         0.0000 
     44 H44        -2.4265    4.3122   -0.8977 H         1 UNK         0.0000 
     45 H45        -2.3438    1.7231    4.1439 H         1 UNK         0.0000 
     46 H46        -3.2855    3.8611    3.2456 H         1 UNK         0.0000 
     47 H47        -2.4138    4.7889    1.1623 H         1 UNK         0.0000 
     48 H48        -1.7242   -1.5376   -2.6225 H         1 UNK         0.0000 
@<TRIPOS>BOND
     1    1    6 nc   
     2    1    8 nc   
     3    1   15 nc   
     4    1   16 nc   
     5    1   26 nc   
     6    1   28 nc   
     7    2    9 ar   
     8    2    3 ar   
     9    2   32 1    
    10    3    4 ar   
    11    3   33 1    
    12    4    5 ar   
    13    4   34 1    
    14    5    6 1    
    15    5    7 ar   
    16    7    8 1    
    17    7    9 ar   
    18    9   10 1    
    19   10   11 2    
    20   10   12 am   BACKBONE|DICT|INTERRES
    21   12   13 1    
    22   12   35 1    
    23   13   14 1    
    24   13   17 1    
    25   13   48 1    
    26   14   15 1    
    27   14   16 2    
    28   17   37 1    
    29   17   18 1    
    30   17   36 1    
    31   18   39 1    
    32   18   19 1    
    33   18   38 1    
    34   19   41 1    
    35   19   20 1    
    36   19   40 1    
    37   20   21 1    
    38   20   42 1    
    39   20   43 1    
    40   21   44 1    
    41   21   22 am   BACKBONE|DICT|INTERRES
    42   22   24 1    
    43   22   23 2    
    44   24   31 ar   
    45   24   25 ar   
    46   25   27 ar   
    47   25   26 1    
    48   27   28 1    
    49   27   29 ar   
    50   29   45 1    
    51   29   30 ar   
    52   30   46 1    
    53   30   31 ar   
    54   31   47 1    
@<TRIPOS>SUBSTRUCTURE
     1 UNK         1 GROUP             0       ****    0 ROOT    
