@<TRIPOS>MOLECULE
239_B_c1
91   99    1
SMALL
USER_CHARGES


@<TRIPOS>ATOM
      1 Fe1        -0.0153   -0.0147   -0.0090 Fe        1 UNK         0.0000 
      2 O2         -0.0157    2.2286   -0.0257 O.co2     1 UNK         0.0000 
      3 C3          0.9147    3.2714    0.0104 C.3       1 UNK         0.0000 
      4 C4          0.9657    3.7669   -1.4459 C.3       1 UNK         0.0000 
      5 C5          0.3471    4.2615    1.0194 C.3       1 UNK         0.0000 
      6 C6          1.5934    5.1097    1.3774 C.3       1 UNK         0.0000 
      7 H7          1.7089    5.9267    0.6651 H         1 UNK         0.0000 
      8 C8          1.5557    5.8510    2.7542 C.2       1 UNK         0.0000 
      9 O9          2.4955    6.5192    3.1893 O.2       1 UNK         0.0000 
     10 N10         0.4602    5.8213    3.4949 N.am      1 UNK         0.0000 
     11 N11         2.7187    4.1714    1.3151 N.3       1 UNK         0.0000 
     12 C12         2.2453    2.8879    0.7587 C.3       1 UNK         0.0000 
     13 C13         3.4096    2.0569    0.1109 C.ar      1 UNK         0.0000 
     14 N14         4.6362    2.6887   -0.0290 N.ar      1 UNK         0.0000 
     15 C15         5.7338    1.9528   -0.3357 C.ar      1 UNK         0.0000 
     16 C16         5.6829    0.5937   -0.5958 C.ar      1 UNK         0.0000 
     17 C17         4.4422   -0.0387   -0.5263 C.ar      1 UNK         0.0000 
     18 C18         3.3114    0.6784   -0.1418 C.ar      1 UNK         0.0000 
     19 O19         2.2518    0.0045   -0.0081 O.co2     1 UNK         0.0000 
     20 H20         1.5732    4.6514   -1.5726 H         1 UNK         0.0000 
     21 H21        -0.0149    4.0105   -1.8452 H         1 UNK         0.0000 
     22 H22         1.3519    3.0068   -2.1121 H         1 UNK         0.0000 
     23 H23        -0.0311    3.7235    1.8989 H         1 UNK         0.0000 
     24 H24        -0.4985    4.8228    0.6138 H         1 UNK         0.0000 
     25 H25        -0.2450    5.1416    3.2504 H         1 UNK         0.0000 
     26 H26         0.6069    6.1618    4.4220 H         1 UNK         0.0000 
     27 H27         6.6749    2.4827   -0.2960 H         1 UNK         0.0000 
     28 H28         6.5597    0.0203   -0.8290 H         1 UNK         0.0000 
     29 H29         4.3260   -1.0897   -0.6999 H         1 UNK         0.0000 
     30 O30        -0.0202   -2.2529    0.0059 O.co2     1 UNK         0.0000 
     31 C31         0.1064   -3.2792    0.9384 C.3       1 UNK         0.0000 
     32 C32        -1.3358   -3.7869    1.1112 C.3       1 UNK         0.0000 
     33 C33         1.0743   -4.2473    0.2758 C.3       1 UNK         0.0000 
     34 C34         1.5579   -5.0759    1.4880 C.3       1 UNK         0.0000 
     35 H35         0.8724   -5.9030    1.6721 H         1 UNK         0.0000 
     36 C36         2.9356   -5.7902    1.3221 C.2       1 UNK         0.0000 
     37 O37         3.4677   -6.4459    2.2197 O.2       1 UNK         0.0000 
     38 N38         3.5689   -5.7491    0.1621 N.am      1 UNK         0.0000 
     39 N39         1.5895   -4.1266    2.6070 N.3       1 UNK         0.0000 
     40 C40         0.9626   -2.8547    2.1858 C.3       1 UNK         0.0000 
     41 C41         0.4040   -2.0328    3.4075 C.ar      1 UNK         0.0000 
     42 N42         0.4560   -2.6468    4.6426 N.ar      1 UNK         0.0000 
     43 C43         0.2634   -1.9107    5.7653 C.ar      1 UNK         0.0000 
     44 C44        -0.0828   -0.5691    5.7338 C.ar      1 UNK         0.0000 
     45 C45        -0.2199    0.0430    4.4915 C.ar      1 UNK         0.0000 
     46 C46         0.0511   -0.6695    3.3204 C.ar      1 UNK         0.0000 
     47 O47        -0.0131   -0.0145    2.2529 O.co2     1 UNK         0.0000 
     48 H48        -1.4003   -4.6693    1.7312 H         1 UNK         0.0000 
     49 H49        -1.8103   -4.0397    0.1668 H         1 UNK         0.0000 
     50 H50        -1.9759   -3.0294    1.5444 H         1 UNK         0.0000 
     51 H51         1.9057   -3.6942   -0.1840 H         1 UNK         0.0000 
     52 H52         0.6035   -4.8173   -0.5300 H         1 UNK         0.0000 
     53 H53         3.2472   -5.0742   -0.5174 H         1 UNK         0.0000 
     54 H54         4.5113   -6.0720    0.2247 H         1 UNK         0.0000 
     55 H55         0.4572   -2.4210    6.6935 H         1 UNK         0.0000 
     56 H56        -0.2307    0.0107    6.6283 H         1 UNK         0.0000 
     57 H57        -0.4649    1.0827    4.3892 H         1 UNK         0.0000 
     58 O58        -2.2502   -0.0325   -0.0059 O.co2     1 UNK         0.0000 
     59 C59        -3.2710   -0.0567   -0.9474 C.3       1 UNK         0.0000 
     60 C60        -3.6129   -1.5541   -1.0754 C.3       1 UNK         0.0000 
     61 C61        -4.3555    0.8177   -0.3323 C.3       1 UNK         0.0000 
     62 C62        -5.2177    1.1649   -1.5686 C.3       1 UNK         0.0000 
     63 H63        -5.9561    0.3814   -1.7378 H         1 UNK         0.0000 
     64 C64        -6.0853    2.4569   -1.4578 C.2       1 UNK         0.0000 
     65 O65        -6.7983    2.8718   -2.3734 O.2       1 UNK         0.0000 
     66 N66        -6.1052    3.1445   -0.3286 N.am      1 UNK         0.0000 
     67 N67        -4.2562    1.2757   -2.6714 N.3       1 UNK         0.0000 
     68 C68        -2.9303    0.7950   -2.2275 C.3       1 UNK         0.0000 
     69 C69        -2.0544    0.2925   -3.4410 C.ar      1 UNK         0.0000 
     70 N70        -2.6475    0.3170   -4.6890 N.ar      1 UNK         0.0000 
     71 C71        -1.8781    0.1886   -5.7989 C.ar      1 UNK         0.0000 
     72 C72        -0.5162   -0.0664   -5.7495 C.ar      1 UNK         0.0000 
     73 C73         0.0805   -0.1818   -4.4976 C.ar      1 UNK         0.0000 
     74 C74        -0.6740    0.0230   -3.3415 C.ar      1 UNK         0.0000 
     75 O75        -0.0374   -0.0241   -2.2662 O.co2     1 UNK         0.0000 
     76 H76        -4.4783   -1.7439   -1.6983 H         1 UNK         0.0000 
     77 H77        -3.8177   -2.0214   -0.1147 H         1 UNK         0.0000 
     78 H78        -2.7809   -2.1195   -1.4790 H         1 UNK         0.0000 
     79 H79        -3.9033    1.7197    0.1032 H         1 UNK         0.0000 
     80 H80        -4.8776    0.3106    0.4850 H         1 UNK         0.0000 
     81 H81        -5.4297    2.9092    0.3834 H         1 UNK         0.0000 
     82 H82        -6.5352    4.0401   -0.4207 H         1 UNK         0.0000 
     83 H83        -2.3871    0.3578   -6.7308 H         1 UNK         0.0000 
     84 H84         0.0891   -0.1683   -6.6334 H         1 UNK         0.0000 
     85 H85         1.1339   -0.3613   -4.3778 H         1 UNK         0.0000 
     86 H86         3.4003    4.4452    0.6193 H         1 UNK         0.0000 
     87 H87         1.9541    2.2535    1.6033 H         1 UNK         0.0000 
     88 H88         0.9690   -4.4032    3.3549 H         1 UNK         0.0000 
     89 H89         1.7610   -2.2042    1.8095 H         1 UNK         0.0000 
     90 H90        -4.4576    0.6124   -3.4080 H         1 UNK         0.0000 
     91 H91        -2.3627    1.6662   -1.8744 H         1 UNK         0.0000 
@<TRIPOS>BOND
     1    1    2 nc   
     2    1   19 nc   
     3    1   30 nc   
     4    1   47 nc   
     5    1   58 nc   
     6    1   75 nc   
     7    2    3 1    
     8    3   12 1    
     9    3    5 1    
    10    3    4 1    
    11    4   20 1    
    12    4   21 1    
    13    4   22 1    
    14    5    6 1    
    15    5   23 1    
    16    5   24 1    
    17    6    7 1    
    18    6    8 1    
    19    6   11 1    
    20    8    9 2    
    21    8   10 am   BACKBONE|DICT|INTERRES
    22   10   26 1    
    23   10   25 1    
    24   11   12 1    
    25   11   86 1    
    26   12   13 1    
    27   12   87 1    
    28   13   14 ar   
    29   13   18 ar   
    30   14   15 ar   
    31   15   16 ar   
    32   15   27 1    
    33   16   17 ar   
    34   16   28 1    
    35   17   18 ar   
    36   17   29 1    
    37   18   19 1    
    38   30   31 1    
    39   31   32 1    
    40   31   40 1    
    41   31   33 1    
    42   32   50 1    
    43   32   48 1    
    44   32   49 1    
    45   33   34 1    
    46   33   51 1    
    47   33   52 1    
    48   34   35 1    
    49   34   39 1    
    50   34   36 1    
    51   36   37 2    
    52   36   38 am   BACKBONE|DICT|INTERRES
    53   38   53 1    
    54   38   54 1    
    55   39   40 1    
    56   39   88 1    
    57   40   41 1    
    58   40   89 1    
    59   41   42 ar   
    60   41   46 ar   
    61   42   43 ar   
    62   43   55 1    
    63   43   44 ar   
    64   44   56 1    
    65   44   45 ar   
    66   45   46 ar   
    67   45   57 1    
    68   46   47 1    
    69   58   59 1    
    70   59   61 1    
    71   59   60 1    
    72   59   68 1    
    73   60   77 1    
    74   60   76 1    
    75   60   78 1    
    76   61   79 1    
    77   61   80 1    
    78   61   62 1    
    79   62   63 1    
    80   62   64 1    
    81   62   67 1    
    82   64   66 am   BACKBONE|DICT|INTERRES
    83   64   65 2    
    84   66   81 1    
    85   66   82 1    
    86   67   68 1    
    87   67   90 1    
    88   68   69 1    
    89   68   91 1    
    90   69   74 ar   
    91   69   70 ar   
    92   70   71 ar   
    93   71   72 ar   
    94   71   83 1    
    95   72   73 ar   
    96   72   84 1    
    97   73   85 1    
    98   73   74 ar   
    99   74   75 1    
@<TRIPOS>SUBSTRUCTURE
     1 UNK         1 GROUP             0       ****    0 ROOT    
