@<TRIPOS>MOLECULE
017_c1
111   115    1
SMALL
USER_CHARGES


@<TRIPOS>ATOM
      1 O1         10.7078   -0.6878   -0.4143 O.co2     1 UNK         0.0000 
      2 O2         11.4689    3.2567    4.4325 O.2       1 UNK         0.0000 
      3 O3         11.6380    1.8346    0.2139 O.co2     1 UNK         0.0000 
      4 O4         16.4672    1.1442   -4.2597 O.2       1 UNK         0.0000 
      5 O5         13.1063    0.1428   -1.4002 O.co2     1 UNK         0.0000 
      6 N6         20.1020   -5.5021   -0.2118 N.am      1 UNK         0.0000 
      7 C7         18.6985   -5.6246   -0.5853 C.3       1 UNK         0.0000 
      8 C8         17.9776   -4.2828   -0.4268 C.3       1 UNK         0.0000 
      9 C9         16.4984   -4.3940   -0.7969 C.3       1 UNK         0.0000 
     10 C10        15.7917   -3.0587   -0.6296 C.3       1 UNK         0.0000 
     11 C11        14.3166   -3.1911   -1.0363 C.3       1 UNK         0.0000 
     12 O12        13.1460   -1.8331    0.4245 O.co2     1 UNK         0.0000 
     13 N13        13.6248   -1.9307   -0.8129 N.am      1 UNK         0.0000 
     14 C14        13.6407   -0.9179   -1.7359 C.2       1 UNK         0.0000 
     15 C15        14.3010   -1.1062   -3.1280 C.3       1 UNK         0.0000 
     16 C16        14.3046    0.1018   -4.1153 C.3       1 UNK         0.0000 
     17 C17        15.3419    1.1795   -3.7832 C.2       1 UNK         0.0000 
     18 N18        14.9597    2.0890   -2.8961 N.am      1 UNK         0.0000 
     19 C19        15.8510    2.9667   -2.1308 C.3       1 UNK         0.0000 
     20 C20        15.1056    3.3681   -0.8585 C.3       1 UNK         0.0000 
     21 C21        15.9177    3.9553    0.3184 C.3       1 UNK         0.0000 
     22 C22        15.0495    4.2507    1.5742 C.3       1 UNK         0.0000 
     23 C23        14.3724    3.0348    2.2740 C.3       1 UNK         0.0000 
     24 O24        13.8846    0.9484    1.3228 O.co2     1 UNK         0.0000 
     25 N25        13.4446    2.2062    1.4599 N.am      1 UNK         0.0000 
     26 C26        12.3023    2.6662    0.8644 C.2       1 UNK         0.0000 
     27 C27        11.7530    4.1006    1.0020 C.3       1 UNK         0.0000 
     28 C28        11.4474    4.5989    2.4481 C.3       1 UNK         0.0000 
     29 C29        10.8662    3.5525    3.4114 C.2       1 UNK         0.0000 
     30 N30         9.7383    2.9492    3.0235 N.am      1 UNK         0.0000 
     31 C31         9.1826    1.7868    3.7145 C.3       1 UNK         0.0000 
     32 C32         7.9098    1.2279    3.0503 C.3       1 UNK         0.0000 
     33 C33         7.4820   -0.1218    3.6861 C.3       1 UNK         0.0000 
     34 C34         7.9339   -1.4240    2.9757 C.3       1 UNK         0.0000 
     35 C35         9.4536   -1.7185    2.7976 C.3       1 UNK         0.0000 
     36 O36        11.2131   -0.2823    2.1454 O.co2     1 UNK         0.0000 
     37 N37        10.1621   -0.9969    1.7138 N.am      1 UNK         0.0000 
     38 C38         9.9159   -1.2087    0.3890 C.2       1 UNK         0.0000 
     39 C39         8.7613   -2.0504   -0.1755 C.3       1 UNK         0.0000 
     40 C40         7.6626   -1.1837   -0.8624 C.3       1 UNK         0.0000 
     41 C41        21.1725   -5.6936   -0.9782 C.2       1 UNK         0.0000 
     42 H42        20.3457   -5.2541    0.7329 H         1 UNK         0.0000 
     43 H43        18.2181   -6.3842    0.0346 H         1 UNK         0.0000 
     44 H44        18.5307   -5.9956   -1.6032 H         1 UNK         0.0000 
     45 H45        18.4554   -3.5215   -1.0498 H         1 UNK         0.0000 
     46 H46        18.0690   -3.9262    0.6032 H         1 UNK         0.0000 
     47 H47        16.0038   -5.1449   -0.1750 H         1 UNK         0.0000 
     48 H48        16.3898   -4.7333   -1.8299 H         1 UNK         0.0000 
     49 H49        16.2914   -2.2999   -1.2340 H         1 UNK         0.0000 
     50 H50        15.8743   -2.7105    0.4018 H         1 UNK         0.0000 
     51 H51        13.8552   -3.9813   -0.4339 H         1 UNK         0.0000 
     52 H52        14.2134   -3.5697   -2.0626 H         1 UNK         0.0000 
     53 H53        13.7257   -1.8978   -3.5988 H         1 UNK         0.0000 
     54 H54        15.3005   -1.5350   -3.0458 H         1 UNK         0.0000 
     55 H55        14.6458   -0.2786   -5.0681 H         1 UNK         0.0000 
     56 H56        13.3110    0.4703   -4.3551 H         1 UNK         0.0000 
     57 H57        14.0297    1.9753   -2.5366 H         1 UNK         0.0000 
     58 H58        16.2094    3.8305   -2.6943 H         1 UNK         0.0000 
     59 H59        16.7413    2.3988   -1.8355 H         1 UNK         0.0000 
     60 H60        14.7077    2.4209   -0.5315 H         1 UNK         0.0000 
     61 H61        14.2563    4.0133   -1.0935 H         1 UNK         0.0000 
     62 H62        16.4041    4.8766   -0.0031 H         1 UNK         0.0000 
     63 H63        16.7316    3.2687    0.5758 H         1 UNK         0.0000 
     64 H64        14.3061    5.0103    1.3476 H         1 UNK         0.0000 
     65 H65        15.6922    4.7099    2.3223 H         1 UNK         0.0000 
     66 H66        15.2151    2.4190    2.6037 H         1 UNK         0.0000 
     67 H67        13.8959    3.2993    3.2227 H         1 UNK         0.0000 
     68 H68        10.8161    4.1592    0.4364 H         1 UNK         0.0000 
     69 H69        12.3613    4.7911    0.4166 H         1 UNK         0.0000 
     70 H70        10.8061    5.4696    2.4285 H         1 UNK         0.0000 
     71 H71        12.3703    4.9933    2.8658 H         1 UNK         0.0000 
     72 H72         9.3065    3.2532    2.1727 H         1 UNK         0.0000 
     73 H73         9.0110    1.9956    4.7738 H         1 UNK         0.0000 
     74 H74         9.9372    1.0020    3.7491 H         1 UNK         0.0000 
     75 H75         8.0182    1.1319    1.9660 H         1 UNK         0.0000 
     76 H76         7.1048    1.9547    3.1968 H         1 UNK         0.0000 
     77 H77         7.7743   -0.1477    4.7398 H         1 UNK         0.0000 
     78 H78         6.3926   -0.1307    3.7034 H         1 UNK         0.0000 
     79 H79         7.5459   -2.2465    3.5722 H         1 UNK         0.0000 
     80 H80         7.4092   -1.4793    2.0297 H         1 UNK         0.0000 
     81 H81         9.9402   -1.5334    3.7609 H         1 UNK         0.0000 
     82 H82         9.6170   -2.7940    2.6590 H         1 UNK         0.0000 
     83 H83         9.2049   -2.7364   -0.9004 H         1 UNK         0.0000 
     84 H84         8.3605   -2.7284    0.5758 H         1 UNK         0.0000 
     85 C85        21.0111   -6.1068   -2.4380 C.3       1 UNK         0.0000 
     86 O86        22.2837   -5.5469   -0.4874 O.2       1 UNK         0.0000 
     87 H87        20.4769   -7.0531   -2.5078 H         1 UNK         0.0000 
     88 H88        21.9869   -6.2257   -2.9118 H         1 UNK         0.0000 
     89 H89        20.4469   -5.3549   -2.9871 H         1 UNK         0.0000 
     90 H90         7.1594   -0.5927   -0.1010 H         1 UNK         0.0000 
     91 C91         8.1357   -0.2259   -1.9907 C.3       1 UNK         0.0000 
     92 H92         6.8975   -1.8431   -1.2622 H         1 UNK         0.0000 
     93 H93         8.7830    0.5543   -1.5821 H         1 UNK         0.0000 
     94 H94         7.2790    0.3256   -2.3803 H         1 UNK         0.0000 
     95 C95         8.8507   -0.9484   -3.1590 C.3       1 UNK         0.0000 
     96 H96         9.7391   -1.4734   -2.7957 H         1 UNK         0.0000 
     97 C97         9.2730   -0.0374   -4.3378 C.3       1 UNK         0.0000 
     98 H98         8.1888   -1.7343   -3.5319 H         1 UNK         0.0000 
     99 C99        10.2716    1.0628   -3.8978 C.3       1 UNK         0.0000 
    100 H100        8.3708    0.4632   -4.7024 H         1 UNK         0.0000 
    101 C101        9.8293   -0.9058   -5.4937 C.3       1 UNK         0.0000 
    102 H102       10.7321   -1.4229   -5.1578 H         1 UNK         0.0000 
    103 C103       10.1258   -0.1359   -6.7935 C.3       1 UNK         0.0000 
    104 H104        9.1150   -1.7013   -5.7164 H         1 UNK         0.0000 
    105 H105       10.9152    0.6038   -6.6594 H         1 UNK         0.0000 
    106 H106        9.2421    0.3855   -7.1644 H         1 UNK         0.0000 
    107 H107       10.4567   -0.8151   -7.5782 H         1 UNK         0.0000 
    108 H108        9.8493    1.7187   -3.1362 H         1 UNK         0.0000 
    109 H109       10.5528    1.7095   -4.7289 H         1 UNK         0.0000 
    110 H110       11.1853    0.6300   -3.4894 H         1 UNK         0.0000 
    111 Fe111      12.3195    0.0027    0.4554 Fe        1 UNK         0.0000 
@<TRIPOS>BOND
     1    1   38 2    
     2    1  111 nc   
     3    2   29 2    
     4    3   26 2    
     5    3  111 nc   
     6    4   17 2    
     7    5   14 2    
     8    5  111 nc   
     9    6   41 am   BACKBONE|DICT|INTERRES
    10    6   42 1    
    11    6    7 1    
    12    7   43 1    
    13    7   44 1    
    14    7    8 1    
    15    8   45 1    
    16    8   46 1    
    17    8    9 1    
    18    9   47 1    
    19    9   48 1    
    20    9   10 1    
    21   10   49 1    
    22   10   50 1    
    23   10   11 1    
    24   11   51 1    
    25   11   52 1    
    26   11   13 1    
    27   12   13 1    
    28   12  111 nc   
    29   13   14 am   BACKBONE|DICT|INTERRES
    30   14   15 1    
    31   15   53 1    
    32   15   54 1    
    33   15   16 1    
    34   16   55 1    
    35   16   56 1    
    36   16   17 1    
    37   17   18 am   BACKBONE|DICT|INTERRES
    38   18   57 1    
    39   18   19 1    
    40   19   58 1    
    41   19   59 1    
    42   19   20 1    
    43   20   60 1    
    44   20   61 1    
    45   20   21 1    
    46   21   62 1    
    47   21   63 1    
    48   21   22 1    
    49   22   64 1    
    50   22   65 1    
    51   22   23 1    
    52   23   66 1    
    53   23   67 1    
    54   23   25 1    
    55   24   25 1    
    56   24  111 nc   
    57   25   26 am   BACKBONE|DICT|INTERRES
    58   26   27 1    
    59   27   68 1    
    60   27   69 1    
    61   27   28 1    
    62   28   70 1    
    63   28   71 1    
    64   28   29 1    
    65   29   30 am   BACKBONE|DICT|INTERRES
    66   30   72 1    
    67   30   31 1    
    68   31   73 1    
    69   31   74 1    
    70   31   32 1    
    71   32   75 1    
    72   32   76 1    
    73   32   33 1    
    74   33   77 1    
    75   33   78 1    
    76   33   34 1    
    77   34   79 1    
    78   34   80 1    
    79   34   35 1    
    80   35   81 1    
    81   35   82 1    
    82   35   37 1    
    83   36   37 1    
    84   36  111 nc   
    85   37   38 am   BACKBONE|DICT|INTERRES
    86   38   39 1    
    87   39   40 1    
    88   39   83 1    
    89   39   84 1    
    90   40   90 1    
    91   40   91 1    
    92   40   92 1    
    93   41   85 1    
    94   41   86 2    
    95   85   87 1    
    96   85   88 1    
    97   85   89 1    
    98   91   93 1    
    99   91   94 1    
   100   91   95 1    
   101   95   96 1    
   102   95   97 1    
   103   95   98 1    
   104   97   99 1    
   105   97  100 1    
   106   97  101 1    
   107   99  108 1    
   108   99  109 1    
   109   99  110 1    
   110  101  102 1    
   111  101  103 1    
   112  101  104 1    
   113  103  105 1    
   114  103  106 1    
   115  103  107 1    
@<TRIPOS>SUBSTRUCTURE
     1 UNK         1 GROUP             0       ****    0 ROOT    
