@<TRIPOS>MOLECULE
126_c1
87   91    1
SMALL
USER_CHARGES


@<TRIPOS>ATOM
      1 Fe1         0.2193    1.2289    1.0760 Fe        1 UNK         0.0000 
      2 O2         -0.1084   -7.3355    5.6427 O.2       1 UNK         0.0000 
      3 C3         -0.9974   -6.5064    5.7912 C.2       1 UNK         0.0000 
      4 O4         -1.7632   -6.3799    6.9112 O.3       1 UNK         0.0000 
      5 C5         -1.4481   -5.6212    4.6041 C.3       1 UNK         0.0000 
      6 H6         -2.4300   -5.1760    4.7755 H         1 UNK         0.0000 
      7 N7         -1.5895   -6.6000    3.4733 N.4       1 UNK         0.0000 
      8 H8         -2.2183   -7.3465    3.7455 H         1 UNK         0.0000 
      9 H9         -1.9079   -6.1301    2.6407 H         1 UNK         0.0000 
     10 H10        -0.6626   -6.9765    3.3163 H         1 UNK         0.0000 
     11 C11        -0.3992   -4.5309    4.3006 C.3       1 UNK         0.0000 
     12 C12        -0.7113   -3.6250    3.0838 C.3       1 UNK         0.0000 
     13 C13         0.4225   -2.5979    2.8854 C.3       1 UNK         0.0000 
     14 N14         0.1376   -1.6080    1.8519 N.am      1 UNK         0.0000 
     15 O15        -0.3903   -0.4756    2.3452 O.co2     1 UNK         0.0000 
     16 C16         0.5521   -1.5554    0.5533 C.2       1 UNK         0.0000 
     17 O17         0.3441   -0.4264    0.1138 O.co2     1 UNK         0.0000 
     18 C18         1.3426   -2.5357   -0.3697 C.3       1 UNK         0.0000 
     19 H19         2.3815   -2.3362   -0.1245 H         1 UNK         0.0000 
     20 C20         1.0597   -4.0592   -0.1947 C.3       1 UNK         0.0000 
     21 H21        -0.0111   -4.2594   -0.2805 H         1 UNK         0.0000 
     22 O22         1.5393   -4.6291    1.0049 O.3       1 UNK         0.0000 
     23 C23         1.7967   -4.9014   -1.2592 C.3       1 UNK         0.0000 
     24 N24         1.0623   -2.1153   -1.7689 N.am      1 UNK         0.0000 
     25 C25         1.8968   -1.4096   -2.5462 C.2       1 UNK         0.0000 
     26 O26         3.0788   -1.2435   -2.2809 O.2       1 UNK         0.0000 
     27 C27         1.3923   -1.0456   -3.9701 C.3       1 UNK         0.0000 
     28 H28         0.3288   -1.2731   -4.0728 H         1 UNK         0.0000 
     29 N29         2.1249   -2.0560   -4.8135 N.4       1 UNK         0.0000 
     30 H30         3.1146   -1.8635   -4.7138 H         1 UNK         0.0000 
     31 H31         1.9384   -2.9811   -4.4573 H         1 UNK         0.0000 
     32 H32         1.8608   -1.9915   -5.7862 H         1 UNK         0.0000 
     33 C33         1.6629    0.4063   -4.4738 C.3       1 UNK         0.0000 
     34 C34         0.7034    1.5616   -4.0628 C.3       1 UNK         0.0000 
     35 C35         1.1791    2.5095   -2.9278 C.3       1 UNK         0.0000 
     36 N36         0.5685    2.2801   -1.6180 N.am      1 UNK         0.0000 
     37 O37         1.4245    1.9301   -0.6642 O.co2     1 UNK         0.0000 
     38 C38        -0.7136    2.4938   -1.2831 C.2       1 UNK         0.0000 
     39 O39        -1.0163    2.1815   -0.1291 O.co2     1 UNK         0.0000 
     40 C40        -1.7748    3.1128   -2.2033 C.3       1 UNK         0.0000 
     41 C41        -2.2354    4.4994   -1.7136 C.3       1 UNK         0.0000 
     42 N42        -1.1871    5.5355   -1.7093 N.am      1 UNK         0.0000 
     43 C43        -0.5858    6.2411   -0.7302 C.2       1 UNK         0.0000 
     44 O44         0.0057    7.2765   -1.0192 O.2       1 UNK         0.0000 
     45 C45        -0.6711    5.8870    0.7877 C.3       1 UNK         0.0000 
     46 H46        -1.3465    5.0599    0.9996 H         1 UNK         0.0000 
     47 N47        -1.2679    7.1362    1.3701 N.4       1 UNK         0.0000 
     48 H48        -1.3742    7.0563    2.3681 H         1 UNK         0.0000 
     49 H49        -0.6082    7.8730    1.1482 H         1 UNK         0.0000 
     50 H50        -2.1486    7.3271    0.9151 H         1 UNK         0.0000 
     51 C51         0.7370    5.6226    1.3955 C.3       1 UNK         0.0000 
     52 C52         0.8270    5.5303    2.9462 C.3       1 UNK         0.0000 
     53 C53         0.1151    4.3157    3.5918 C.3       1 UNK         0.0000 
     54 N54         0.4605    3.0350    2.9528 N.am      1 UNK         0.0000 
     55 O55        -0.5194    2.4205    2.3140 O.co2     1 UNK         0.0000 
     56 C56         1.7132    2.5579    2.8579 C.2       1 UNK         0.0000 
     57 O57         1.8119    1.6151    2.0652 O.co2     1 UNK         0.0000 
     58 H58         0.5698   -5.0154    4.1322 H         1 UNK         0.0000 
     59 H59        -0.2824   -3.8911    5.1835 H         1 UNK         0.0000 
     60 H60        -0.8208   -4.2242    2.1730 H         1 UNK         0.0000 
     61 H61        -1.6529   -3.0918    3.2519 H         1 UNK         0.0000 
     62 H62         1.3892   -3.0746    2.7582 H         1 UNK         0.0000 
     63 H63         0.5765   -2.0961    3.8426 H         1 UNK         0.0000 
     64 H64         2.5017   -4.5422    1.0364 H         1 UNK         0.0000 
     65 H65         2.8797   -4.7190   -1.2414 H         1 UNK         0.0000 
     66 H66         1.4466   -4.6829   -2.2704 H         1 UNK         0.0000 
     67 H67         1.6374   -5.9726   -1.0950 H         1 UNK         0.0000 
     68 H68         0.1000   -2.2363   -2.0414 H         1 UNK         0.0000 
     69 H69         1.5774    0.3639   -5.5601 H         1 UNK         0.0000 
     70 H70         2.7022    0.7009   -4.3112 H         1 UNK         0.0000 
     71 H71         0.6221    2.2154   -4.9325 H         1 UNK         0.0000 
     72 H72        -0.3102    1.1970   -3.8980 H         1 UNK         0.0000 
     73 H73         0.9540    3.5459   -3.1831 H         1 UNK         0.0000 
     74 H74         2.2688    2.4975   -2.8791 H         1 UNK         0.0000 
     75 H75        -2.6214    2.4711   -2.4412 H         1 UNK         0.0000 
     76 H76        -1.4045    3.2279   -3.2176 H         1 UNK         0.0000 
     77 H77        -2.4609    4.3411   -0.6622 H         1 UNK         0.0000 
     78 H78        -3.2595    4.7554   -1.9938 H         1 UNK         0.0000 
     79 H79        -0.9943    5.9131   -2.6318 H         1 UNK         0.0000 
     80 H80         1.4150    6.4271    1.0981 H         1 UNK         0.0000 
     81 H81         1.1634    4.7163    0.9580 H         1 UNK         0.0000 
     82 H82         1.8805    5.4687    3.2257 H         1 UNK         0.0000 
     83 H83         0.5029    6.4518    3.4343 H         1 UNK         0.0000 
     84 H84         0.3634    4.2515    4.6506 H         1 UNK         0.0000 
     85 H85        -0.9688    4.4754    3.5398 H         1 UNK         0.0000 
     86 H86        -2.4560   -5.7217    6.9739 H         1 UNK         0.0000 
     87 H87         2.4924    3.0783    3.4453 H         1 UNK         0.0000 
@<TRIPOS>BOND
     1    1   15 nc   
     2    1   17 nc   
     3    1   37 nc   
     4    1   39 nc   
     5    1   55 nc   
     6    1   57 nc   
     7    2    3 2    
     8    3    4 1    
     9    3    5 1    
    10    4   86 1    
    11    5    6 1    
    12    5    7 1    
    13    5   11 1    
    14    7    8 1    
    15    7    9 1    
    16    7   10 1    
    17   11   59 1    
    18   11   12 1    
    19   11   58 1    
    20   12   61 1    
    21   12   13 1    
    22   12   60 1    
    23   13   63 1    
    24   13   14 1    
    25   13   62 1    
    26   14   15 1    
    27   14   16 am   BACKBONE|DICT|INTERRES
    28   16   17 2    
    29   16   18 1    
    30   18   20 1    
    31   18   19 1    
    32   18   24 1    
    33   20   21 1    
    34   20   22 1    
    35   20   23 1    
    36   22   64 1    
    37   23   65 1    
    38   23   67 1    
    39   23   66 1    
    40   24   25 am   BACKBONE|DICT|INTERRES
    41   24   68 1    
    42   25   26 2    
    43   25   27 1    
    44   27   28 1    
    45   27   29 1    
    46   27   33 1    
    47   29   30 1    
    48   29   31 1    
    49   29   32 1    
    50   33   70 1    
    51   33   34 1    
    52   33   69 1    
    53   34   72 1    
    54   34   35 1    
    55   34   71 1    
    56   35   74 1    
    57   35   36 1    
    58   35   73 1    
    59   36   38 am   BACKBONE|DICT|INTERRES
    60   36   37 1    
    61   38   39 2    
    62   38   40 1    
    63   40   75 1    
    64   40   41 1    
    65   40   76 1    
    66   41   77 1    
    67   41   42 1    
    68   41   78 1    
    69   42   43 am   BACKBONE|DICT|INTERRES
    70   42   79 1    
    71   43   45 1    
    72   43   44 2    
    73   45   46 1    
    74   45   51 1    
    75   45   47 1    
    76   47   48 1    
    77   47   49 1    
    78   47   50 1    
    79   51   52 1    
    80   51   80 1    
    81   51   81 1    
    82   52   82 1    
    83   52   83 1    
    84   52   53 1    
    85   53   84 1    
    86   53   54 1    
    87   53   85 1    
    88   54   55 1    
    89   54   56 am   BACKBONE|DICT|INTERRES
    90   56   57 2    
    91   56   87 1    
@<TRIPOS>SUBSTRUCTURE
     1 UNK         1 GROUP             0       ****    0 ROOT    
