@<TRIPOS>MOLECULE
214_c1
105   114    1
SMALL
USER_CHARGES


@<TRIPOS>ATOM
      1 O1         17.1372   -2.7152   -7.9028 O.co2     1 UNK         0.0000 
      2 C2         16.8068   -4.0742   -7.9050 C.3       1 UNK         0.0000 
      3 C3         16.6188   -4.5698   -6.4856 C.3       1 UNK         0.0000 
      4 C4         15.9810   -5.9341   -6.2780 C.2       1 UNK         0.0000 
      5 C5         15.6184   -6.3810   -5.0609 C.2       1 UNK         0.0000 
      6 C6         15.8632   -5.5914   -3.8586 C.2       1 UNK         0.0000 
      7 C7         15.4337   -5.8433   -2.6089 C.2       1 UNK         0.0000 
      8 C8         14.5107   -7.0161   -2.3384 C.3       1 UNK         0.0000 
      9 C9         15.8652   -4.9558   -1.5242 C.2       1 UNK         0.0000 
     10 C10        17.1130   -4.4788   -1.3008 C.2       1 UNK         0.0000 
     11 C11        18.3815   -4.7975   -2.0859 C.3       1 UNK         0.0000 
     12 C12        19.6928   -4.3263   -1.4197 C.3       1 UNK         0.0000 
     13 C13        20.0701   -2.8252   -1.4824 C.3       1 UNK         0.0000 
     14 H14        20.7459   -2.5271   -0.6761 H         1 UNK         0.0000 
     15 O15        19.0995   -1.8773   -1.8356 O.3       1 UNK         0.0000 
     16 C16        20.1789   -1.9905   -2.7415 C.3       1 UNK         0.0000 
     17 H17        20.9128   -1.1854   -2.6960 H         1 UNK         0.0000 
     18 C18        19.7934   -2.3921   -4.1952 C.3       1 UNK         0.0000 
     19 H19        18.7186   -2.5878   -4.2102 H         1 UNK         0.0000 
     20 C20        20.5285   -3.6622   -4.6728 C.3       1 UNK         0.0000 
     21 C21        20.0589   -1.1881   -5.1497 C.3       1 UNK         0.0000 
     22 C22        19.2935   -1.1614   -6.5155 C.3       1 UNK         0.0000 
     23 H23        18.2341   -1.1998   -6.2500 H         1 UNK         0.0000 
     24 O24        19.5452   -2.2646   -7.4181 O.3       1 UNK         0.0000 
     25 C25        19.4761    0.1089   -7.4141 C.3       1 UNK         0.0000 
     26 H26        19.2262    1.0157   -6.8612 H         1 UNK         0.0000 
     27 O27        18.6001    0.0394   -8.5301 O.co2     1 UNK         0.0000 
     28 C28        20.9769    0.1030   -7.8863 C.3       1 UNK         0.0000 
     29 C29        21.3323   -1.2296   -8.6015 C.3       1 UNK         0.0000 
     30 H30        20.7278   -1.1416   -9.4775 H         1 UNK         0.0000 
     31 O31        22.6387   -1.3577   -9.1529 O.3       1 UNK         0.0000 
     32 C32        20.8978   -2.5098   -7.8209 C.3       1 UNK         0.0000 
     33 H33        21.5520   -2.7107   -6.9726 H         1 UNK         0.0000 
     34 C34        20.8338   -3.7217   -8.7700 C.3       1 UNK         0.0000 
     35 H35        20.6314   -4.6413   -8.2156 H         1 UNK         0.0000 
     36 O36        19.7952   -3.5724   -9.7205 O.co2     1 UNK         0.0000 
     37 C37        22.2179   -3.7811   -9.4843 C.3       1 UNK         0.0000 
     38 C38        22.6838   -2.4183  -10.1153 C.3       1 UNK         0.0000 
     39 O39        21.8314   -2.2152  -11.2309 O.3       1 UNK         0.0000 
     40 C40        22.0831   -1.1579  -12.1352 C.3       1 UNK         0.0000 
     41 H41        21.4617   -1.3951  -12.9949 H         1 UNK         0.0000 
     42 C42        23.5414   -1.1627  -12.6550 C.3       1 UNK         0.0000 
     43 C43        24.5228   -1.8757  -11.7434 C.2       1 UNK         0.0000 
     44 C44        24.1175   -2.4678  -10.6006 C.2       1 UNK         0.0000 
     45 C45        25.9791   -1.9348  -12.1605 C.3       1 UNK         0.0000 
     46 C46        21.5392    0.1843  -11.5989 C.3       1 UNK         0.0000 
     47 C47        19.9864    0.2799  -11.3948 C.3       1 UNK         0.0000 
     48 H48        19.7725    0.9961  -10.5945 H         1 UNK         0.0000 
     49 O49        19.2964   -0.9851  -11.1107 O.3       1 UNK         0.0000 
     50 C50        18.4706   -1.3711  -12.2365 C.3       1 UNK         0.0000 
     51 H51        18.8037   -2.3535  -12.5653 H         1 UNK         0.0000 
     52 C52        18.7778   -0.3678  -13.3556 C.3       1 UNK         0.0000 
     53 C53        19.2653    0.8571  -12.6256 C.3       1 UNK         0.0000 
     54 C54        17.0060   -1.4370  -11.7268 C.3       1 UNK         0.0000 
     55 H55        16.3984   -1.8372  -12.5356 H         1 UNK         0.0000 
     56 O56        16.9609   -2.2363  -10.5986 O.co2     1 UNK         0.0000 
     57 C57        16.4063   -0.0950  -11.2907 C.2       1 UNK         0.0000 
     58 C58        15.2867    0.5570  -11.6854 C.2       1 UNK         0.0000 
     59 C59        14.9654    1.8962  -11.0538 C.3       1 UNK         0.0000 
     60 C60        14.2551    0.1022  -12.7164 C.3       1 UNK         0.0000 
     61 H61        15.8955   -4.2629   -8.4799 H         1 UNK         0.0000 
     62 H62        17.5581   -4.7028   -8.3871 H         1 UNK         0.0000 
     63 H63        15.9813   -3.8317   -5.9874 H         1 UNK         0.0000 
     64 H64        17.5809   -4.5465   -5.9699 H         1 UNK         0.0000 
     65 H65        15.7985   -6.5552   -7.1477 H         1 UNK         0.0000 
     66 H66        15.1456   -7.3461   -4.9866 H         1 UNK         0.0000 
     67 H67        16.4569   -4.7055   -3.9917 H         1 UNK         0.0000 
     68 H68        13.6237   -6.9257   -2.9681 H         1 UNK         0.0000 
     69 H69        14.1931   -7.0911   -1.3021 H         1 UNK         0.0000 
     70 H70        14.9865   -7.9458   -2.6504 H         1 UNK         0.0000 
     71 H71        15.0975   -4.6366   -0.8363 H         1 UNK         0.0000 
     72 H72        17.2492   -3.8086   -0.4641 H         1 UNK         0.0000 
     73 H73        18.4196   -5.8869   -2.1804 H         1 UNK         0.0000 
     74 H74        18.3216   -4.4130   -3.0965 H         1 UNK         0.0000 
     75 H75        20.5408   -4.8872   -1.8183 H         1 UNK         0.0000 
     76 H76        19.6610   -4.6275   -0.3716 H         1 UNK         0.0000 
     77 H77        20.1274   -4.0006   -5.6267 H         1 UNK         0.0000 
     78 H78        20.4064   -4.5116   -4.0068 H         1 UNK         0.0000 
     79 H79        21.6000   -3.4945   -4.7896 H         1 UNK         0.0000 
     80 H80        21.1344   -1.0990   -5.3046 H         1 UNK         0.0000 
     81 H81        19.7615   -0.2872   -4.6120 H         1 UNK         0.0000 
     82 H82        21.6253    0.2432   -7.0225 H         1 UNK         0.0000 
     83 H83        21.1213    0.9479   -8.5574 H         1 UNK         0.0000 
     84 H84        22.2016   -4.5236  -10.2796 H         1 UNK         0.0000 
     85 H85        22.9740   -4.0891   -8.7603 H         1 UNK         0.0000 
     86 H86        23.8861   -0.1541  -12.8804 H         1 UNK         0.0000 
     87 H87        23.5717   -1.6934  -13.6045 H         1 UNK         0.0000 
     88 H88        24.8333   -2.9434   -9.9454 H         1 UNK         0.0000 
     89 H89        26.1441   -1.4321  -13.1110 H         1 UNK         0.0000 
     90 H90        26.3111   -2.9692  -12.2677 H         1 UNK         0.0000 
     91 H91        26.6067   -1.4514  -11.4112 H         1 UNK         0.0000 
     92 H92        21.8488    0.9829  -12.2663 H         1 UNK         0.0000 
     93 H93        22.0454    0.4389  -10.6744 H         1 UNK         0.0000 
     94 H94        17.9479   -0.1740  -14.0388 H         1 UNK         0.0000 
     95 H95        19.5823   -0.7466  -13.9834 H         1 UNK         0.0000 
     96 H96        18.4106    1.4604  -12.3114 H         1 UNK         0.0000 
     97 H97        19.8698    1.5342  -13.2276 H         1 UNK         0.0000 
     98 H98        16.9800    0.4068  -10.5258 H         1 UNK         0.0000 
     99 H99        15.7993    2.5827  -11.2217 H         1 UNK         0.0000 
    100 H100       14.8282    1.7611   -9.9754 H         1 UNK         0.0000 
    101 H101       14.0569    2.3407  -11.4645 H         1 UNK         0.0000 
    102 H102       14.2197    0.8029  -13.5500 H         1 UNK         0.0000 
    103 H103       13.2650    0.0651  -12.2562 H         1 UNK         0.0000 
    104 H104       14.4539   -0.8879  -13.1212 H         1 UNK         0.0000 
    105 Fe105      18.5624   -1.9371   -9.2435 Fe        1 UNK         0.0000 
@<TRIPOS>BOND
     1    1    2 1    
     2    1  105 nc   
     3    2    3 1    
     4    2   61 1    
     5    2   62 1    
     6    3    4 1    
     7    3   63 1    
     8    3   64 1    
     9    4    5 2    
    10    4   65 1    
    11    5    6 1    
    12    5   66 1    
    13    6    7 2    
    14    6   67 1    
    15    7    8 1    
    16    7    9 1    
    17    8   68 1    
    18    8   69 1    
    19    8   70 1    
    20    9   10 2    
    21    9   71 1    
    22   10   11 1    
    23   10   72 1    
    24   11   12 1    
    25   11   73 1    
    26   11   74 1    
    27   12   75 1    
    28   12   76 1    
    29   12   13 1    
    30   13   15 1    
    31   13   16 1    
    32   13   14 1    
    33   15   16 1    
    34   16   17 1    
    35   16   18 1    
    36   18   20 1    
    37   18   21 1    
    38   18   19 1    
    39   20   77 1    
    40   20   78 1    
    41   20   79 1    
    42   21   80 1    
    43   21   81 1    
    44   21   22 1    
    45   22   24 1    
    46   22   23 1    
    47   22   25 1    
    48   24   32 1    
    49   24  105 nc   
    50   25   26 1    
    51   25   27 1    
    52   25   28 1    
    53   27  105 nc   
    54   28   29 1    
    55   28   82 1    
    56   28   83 1    
    57   29   30 1    
    58   29   31 1    
    59   29   32 1    
    60   31   38 1    
    61   32   33 1    
    62   32   34 1    
    63   34   37 1    
    64   34   36 1    
    65   34   35 1    
    66   36  105 nc   
    67   37   38 1    
    68   37   84 1    
    69   37   85 1    
    70   38   39 1    
    71   38   44 1    
    72   39   40 1    
    73   40   42 1    
    74   40   46 1    
    75   40   41 1    
    76   42   43 1    
    77   42   86 1    
    78   42   87 1    
    79   43   44 2    
    80   43   45 1    
    81   44   88 1    
    82   45   89 1    
    83   45   90 1    
    84   45   91 1    
    85   46   92 1    
    86   46   93 1    
    87   46   47 1    
    88   47   49 1    
    89   47   53 1    
    90   47   48 1    
    91   49   50 1    
    92   49  105 nc   
    93   50   52 1    
    94   50   54 1    
    95   50   51 1    
    96   52   53 1    
    97   52   94 1    
    98   52   95 1    
    99   53   96 1    
   100   53   97 1    
   101   54   57 1    
   102   54   56 1    
   103   54   55 1    
   104   56  105 nc   
   105   57   58 2    
   106   57   98 1    
   107   58   59 1    
   108   58   60 1    
   109   59   99 1    
   110   59  100 1    
   111   59  101 1    
   112   60  102 1    
   113   60  103 1    
   114   60  104 1    
@<TRIPOS>SUBSTRUCTURE
     1 UNK         1 GROUP             0       ****    0 ROOT    
