@<TRIPOS>MOLECULE
012_r1_c1
86   90    1
SMALL
USER_CHARGES


@<TRIPOS>ATOM
      1 Fe1        -0.7729    1.9212   -0.7669 Fe        1 UNK         0.0000 
      2 C2         -2.1800   -8.5758    3.3669 C.3       1 UNK         0.0000 
      3 C3         -1.4930   -7.4207    2.6439 C.3       1 UNK         0.0000 
      4 C4         -2.4385   -6.7670    1.6227 C.3       1 UNK         0.0000 
      5 C5         -1.7869   -5.6204    0.8287 C.3       1 UNK         0.0000 
      6 C6         -1.3759   -4.4424    1.7178 C.3       1 UNK         0.0000 
      7 C7         -0.7940   -3.3173    0.9013 C.2       1 UNK         0.0000 
      8 C8         -1.3306   -2.0864    0.9439 C.2       1 UNK         0.0000 
      9 C9         -0.8195   -0.8639    0.2674 C.2       1 UNK         0.0000 
     10 O10        -1.2884    0.2289    0.4550 O.co2     1 UNK         0.0000 
     11 N11         0.2044   -0.6492   -0.4793 N.am      1 UNK         0.0000 
     12 O12         0.1702    0.6936   -0.4994 O.co2     1 UNK         0.0000 
     13 C13         1.2695   -1.5609   -0.8866 C.3       1 UNK         0.0000 
     14 C14         2.5432   -0.9611   -1.5460 C.3       1 UNK         0.0000 
     15 C15         2.6859   -0.9611   -3.0956 C.3       1 UNK         0.0000 
     16 N16         2.2380    0.2351   -3.7848 N.am      1 UNK         0.0000 
     17 C17         0.9447    0.5781   -3.9774 C.2       1 UNK         0.0000 
     18 O18         0.0455   -0.1316   -3.5499 O.2       1 UNK         0.0000 
     19 C19         0.6029    1.8963   -4.6849 C.3       1 UNK         0.0000 
     20 C20         0.0182    2.9105   -3.6676 C.3       1 UNK         0.0000 
     21 O21        -0.9650    2.3260   -2.8727 O.co2     1 UNK         0.0000 
     22 C22         0.9384    3.0431   -2.5946 C.2       1 UNK         0.0000 
     23 O23         0.4263    2.3200   -1.5869 O.co2     1 UNK         0.0000 
     24 O24         2.0679    3.5072   -2.6196 O.co2     1 UNK         0.0000 
     25 C25        -0.4418    4.2917   -4.2159 C.3       1 UNK         0.0000 
     26 C26        -1.8224    4.6846   -3.7145 C.2       1 UNK         0.0000 
     27 O27        -2.7917    4.1074   -4.1883 O.2       1 UNK         0.0000 
     28 N28        -1.9966    5.6551   -2.7727 N.am      1 UNK         0.0000 
     29 C29        -3.3160    6.1007   -2.3436 C.3       1 UNK         0.0000 
     30 C30        -4.1720    5.0255   -1.6272 C.3       1 UNK         0.0000 
     31 C31        -3.7539    4.7008   -0.1814 C.3       1 UNK         0.0000 
     32 N32        -2.4959    3.9780   -0.0897 N.am      1 UNK         0.0000 
     33 O33        -2.2901    2.6854   -0.4216 O.co2     1 UNK         0.0000 
     34 C34        -1.3472    4.2881    0.4186 C.2       1 UNK         0.0000 
     35 O35        -0.6901    3.2733    0.3240 O.co2     1 UNK         0.0000 
     36 C36        -0.7754    5.5273    1.0109 C.2       1 UNK         0.0000 
     37 C37        -1.3157    6.7544    1.0814 C.2       1 UNK         0.0000 
     38 C38        -0.5645    7.8835    1.7372 C.3       1 UNK         0.0000 
     39 C39        -1.3283    8.3706    2.9705 C.3       1 UNK         0.0000 
     40 C40        -0.5561    9.4811    3.6903 C.3       1 UNK         0.0000 
     41 C41        -1.2966    9.9329    4.9534 C.3       1 UNK         0.0000 
     42 C42        -0.5173   11.0199    5.6871 C.3       1 UNK         0.0000 
     43 H43        -3.0728   -8.2092    3.9173 H         1 UNK         0.0000 
     44 H44        -1.4762   -9.0297    4.0963 H         1 UNK         0.0000 
     45 H45        -2.4928   -9.3562    2.6412 H         1 UNK         0.0000 
     46 H46        -0.5909   -7.8073    2.1221 H         1 UNK         0.0000 
     47 H47        -1.1769   -6.6832    3.4102 H         1 UNK         0.0000 
     48 H48        -3.3436   -6.3835    2.1435 H         1 UNK         0.0000 
     49 H49        -2.7612   -7.5423    0.8939 H         1 UNK         0.0000 
     50 H50        -2.5306   -5.2567    0.0862 H         1 UNK         0.0000 
     51 H51        -0.9011   -6.0044    0.2764 H         1 UNK         0.0000 
     52 H52        -0.5944   -4.7615    2.4370 H         1 UNK         0.0000 
     53 H53        -2.2615   -4.0980    2.2967 H         1 UNK         0.0000 
     54 H54         0.8760   -2.3907   -1.5103 H         1 UNK         0.0000 
     55 H55         1.6385   -1.9947    0.0705 H         1 UNK         0.0000 
     56 H56         3.3060   -1.7283   -1.2742 H         1 UNK         0.0000 
     57 H57         2.9059   -0.0287   -1.0637 H         1 UNK         0.0000 
     58 H58         3.7852   -0.9992   -3.2741 H         1 UNK         0.0000 
     59 H59         2.2661   -1.8815   -3.5545 H         1 UNK         0.0000 
     60 H60         2.9665    0.8503   -4.1785 H         1 UNK         0.0000 
     61 H61        -0.1145    1.6913   -5.5087 H         1 UNK         0.0000 
     62 H62         1.5128    2.3503   -5.1352 H         1 UNK         0.0000 
     63 H63         0.3152    5.0731   -3.9807 H         1 UNK         0.0000 
     64 H64        -0.5049    4.2671   -5.3252 H         1 UNK         0.0000 
     65 H65        -1.1700    6.1351   -2.3863 H         1 UNK         0.0000 
     66 H66        -3.8658    6.4379   -3.2496 H         1 UNK         0.0000 
     67 H67        -3.2192    6.9829   -1.6738 H         1 UNK         0.0000 
     68 H68        -4.2698    4.1022   -2.2320 H         1 UNK         0.0000 
     69 H69        -5.1925    5.4601   -1.5443 H         1 UNK         0.0000 
     70 H70        -4.5367    4.0647    0.2847 H         1 UNK         0.0000 
     71 H71        -3.7560    5.6235    0.4095 H         1 UNK         0.0000 
     72 H72        -0.4375    8.7103    1.0056 H         1 UNK         0.0000 
     73 H73         0.4476    7.5510    2.0593 H         1 UNK         0.0000 
     74 H74        -2.3315    8.7440    2.6674 H         1 UNK         0.0000 
     75 H75        -1.4611    7.5144    3.6693 H         1 UNK         0.0000 
     76 H76        -0.4255   10.3460    3.0032 H         1 UNK         0.0000 
     77 H77         0.4482    9.0980    3.9785 H         1 UNK         0.0000 
     78 H78        -1.4286    9.0665    5.6382 H         1 UNK         0.0000 
     79 H79        -2.2992   10.3270    4.6793 H         1 UNK         0.0000 
     80 H80        -1.0730   11.3252    6.5985 H         1 UNK         0.0000 
     81 H81        -0.3859   11.9085    5.0339 H         1 UNK         0.0000 
     82 H82         0.4813   10.6392    5.9913 H         1 UNK         0.0000 
     83 H83        -2.2295   -1.9087    1.5156 H         1 UNK         0.0000 
     84 H84         0.0653   -3.5104    0.2763 H         1 UNK         0.0000 
     85 H85        -2.2957    6.9376    0.6662 H         1 UNK         0.0000 
     86 H86         0.2053    5.5071    1.4629 H         1 UNK         0.0000 
@<TRIPOS>BOND
     1    1   10 nc   
     2    1   12 nc   
     3    1   21 nc   
     4    1   23 nc   
     5    1   33 nc   
     6    1   35 nc   
     7    2   43 1    
     8    2   44 1    
     9    2    3 1    
    10    2   45 1    
    11    3   47 1    
    12    3    4 1    
    13    3   46 1    
    14    4   48 1    
    15    4    5 1    
    16    4   49 1    
    17    5    6 1    
    18    5   50 1    
    19    5   51 1    
    20    6   53 1    
    21    6   52 1    
    22    6    7 1    
    23    7    8 2    
    24    7   84 1    
    25    8    9 1    
    26    8   83 1    
    27    9   10 2    
    28    9   11 am   BACKBONE|DICT|INTERRES
    29   11   12 1    
    30   11   13 1    
    31   13   55 1    
    32   13   14 1    
    33   13   54 1    
    34   14   56 1    
    35   14   57 1    
    36   14   15 1    
    37   15   16 1    
    38   15   58 1    
    39   15   59 1    
    40   16   17 am   BACKBONE|DICT|INTERRES
    41   16   60 1    
    42   17   18 2    
    43   17   19 1    
    44   19   20 1    
    45   19   61 1    
    46   19   62 1    
    47   20   21 1    
    48   20   22 1    
    49   20   25 1    
    50   22   23 1    
    51   22   24 2    
    52   25   63 1    
    53   25   26 1    
    54   25   64 1    
    55   26   28 am   BACKBONE|DICT|INTERRES
    56   26   27 2    
    57   28   65 1    
    58   28   29 1    
    59   29   67 1    
    60   29   30 1    
    61   29   66 1    
    62   30   69 1    
    63   30   31 1    
    64   30   68 1    
    65   31   32 1    
    66   31   70 1    
    67   31   71 1    
    68   32   34 am   BACKBONE|DICT|INTERRES
    69   32   33 1    
    70   34   36 1    
    71   34   35 2    
    72   36   37 2    
    73   36   86 1    
    74   37   38 1    
    75   37   85 1    
    76   38   73 1    
    77   38   39 1    
    78   38   72 1    
    79   39   75 1    
    80   39   40 1    
    81   39   74 1    
    82   40   77 1    
    83   40   41 1    
    84   40   76 1    
    85   41   78 1    
    86   41   42 1    
    87   41   79 1    
    88   42   82 1    
    89   42   80 1    
    90   42   81 1    
@<TRIPOS>SUBSTRUCTURE
     1 UNK         1 GROUP             0       ****    0 ROOT    
