@<TRIPOS>MOLECULE
185_J9_c1
100   107    1
SMALL
USER_CHARGES


@<TRIPOS>ATOM
      1 Fe1        -0.0005    0.0526   -0.1014 Fe        1 UNK         0.0000 
      2 C2         -1.7506   -5.2888    0.6204 C.ar      1 UNK         0.0000 
      3 C3         -2.5131   -5.9024    1.6193 C.ar      1 UNK         0.0000 
      4 C4         -2.8962   -5.1867    2.7496 C.ar      1 UNK         0.0000 
      5 C5         -2.5143   -3.8570    2.8914 C.ar      1 UNK         0.0000 
      6 C6         -1.7539   -3.2364    1.8987 C.ar      1 UNK         0.0000 
      7 F7         -1.4182   -1.9473    2.1120 F         1 UNK         0.0000 
      8 C8         -1.3409   -3.9397    0.7415 C.ar      1 UNK         0.0000 
      9 C9         -0.4994   -3.2536   -0.3294 C.2       1 UNK         0.0000 
     10 O10        -0.1837   -2.0519   -0.2387 O.co2     1 UNK         0.0000 
     11 N11        -0.0850   -3.9896   -1.3903 N.am      1 UNK         0.0000 
     12 C12         0.6870   -3.4469   -2.5198 C.3       1 UNK         0.0000 
     13 C13         2.1870   -3.8125   -2.4635 C.3       1 UNK         0.0000 
     14 C14         3.0411   -2.9475   -3.4209 C.3       1 UNK         0.0000 
     15 C15         4.5567   -3.0076   -3.1025 C.3       1 UNK         0.0000 
     16 C16         5.3858   -1.7672   -3.5453 C.3       1 UNK         0.0000 
     17 H17         5.3419   -1.7132   -4.6365 H         1 UNK         0.0000 
     18 C18         6.9035   -1.8873   -3.2452 C.3       1 UNK         0.0000 
     19 O19         7.2529   -2.1634   -1.9086 O.3       1 UNK         0.0000 
     20 N20         4.7878   -0.4789   -3.1461 N.am      1 UNK         0.0000 
     21 C21         4.4473   -0.1018   -1.8991 C.2       1 UNK         0.0000 
     22 O22         4.8213   -0.7198   -0.9048 O.2       1 UNK         0.0000 
     23 C23         3.4813    1.0759   -1.8045 C.ar      1 UNK         0.0000 
     24 C24         2.4224    1.1059   -0.8582 C.ar      1 UNK         0.0000 
     25 O25         2.1679    0.1072   -0.0863 O.co2     1 UNK         0.0000 
     26 C26         1.5632    2.2180   -0.7970 C.ar      1 UNK         0.0000 
     27 O27         0.4654    2.1937    0.0416 O.3       1 UNK         0.0000 
     28 C28         1.7336    3.2961   -1.6756 C.ar      1 UNK         0.0000 
     29 C29         2.7465    3.2543   -2.6246 C.ar      1 UNK         0.0000 
     30 C30         3.6034    2.1587   -2.7013 C.ar      1 UNK         0.0000 
     31 H31        -1.4847   -5.8896   -0.2383 H         1 UNK         0.0000 
     32 H32        -2.8130   -6.9355    1.5156 H         1 UNK         0.0000 
     33 H33        -3.4819   -5.6690    3.5221 H         1 UNK         0.0000 
     34 H34        -2.8137   -3.3009    3.7689 H         1 UNK         0.0000 
     35 H35        -0.4228   -4.9366   -1.4715 H         1 UNK         0.0000 
     36 H36         0.2321   -3.7790   -3.4552 H         1 UNK         0.0000 
     37 H37         0.6065   -2.3559   -2.5629 H         1 UNK         0.0000 
     38 H38         2.5206   -3.6552   -1.4319 H         1 UNK         0.0000 
     39 H39         2.3187   -4.8751   -2.6858 H         1 UNK         0.0000 
     40 H40         2.6909   -1.9145   -3.3261 H         1 UNK         0.0000 
     41 H41         2.8609   -3.2379   -4.4606 H         1 UNK         0.0000 
     42 H42         4.9852   -3.8952   -3.5748 H         1 UNK         0.0000 
     43 H43         4.6992   -3.1278   -2.0265 H         1 UNK         0.0000 
     44 H44         7.3213   -2.6860   -3.8665 H         1 UNK         0.0000 
     45 H45         7.4135   -0.9709   -3.5460 H         1 UNK         0.0000 
     46 H46         8.1264   -1.7811   -1.7464 H         1 UNK         0.0000 
     47 H47         4.4162    0.0959   -3.8880 H         1 UNK         0.0000 
     48 H48         0.0177    3.0518    0.0472 H         1 UNK         0.0000 
     49 H49         1.0551    4.1386   -1.6552 H         1 UNK         0.0000 
     50 H50         2.8583    4.0810   -3.3099 H         1 UNK         0.0000 
     51 H51         4.3724    2.1787   -3.4592 H         1 UNK         0.0000 
     52 C52         1.7373   -0.6214    5.2411 C.ar      1 UNK         0.0000 
     53 C53         2.4992   -1.6107    5.8660 C.ar      1 UNK         0.0000 
     54 C54         2.8843   -2.7488    5.1611 C.ar      1 UNK         0.0000 
     55 C55         2.5131   -2.8943    3.8283 C.ar      1 UNK         0.0000 
     56 C56         1.7542   -1.9061    3.1958 C.ar      1 UNK         0.0000 
     57 F57         1.4375   -2.1139    1.9035 F         1 UNK         0.0000 
     58 C58         1.3350   -0.7505    3.8948 C.ar      1 UNK         0.0000 
     59 C59         0.4956    0.3170    3.2163 C.2       1 UNK         0.0000 
     60 O60         0.1974    0.2433    2.0065 O.co2     1 UNK         0.0000 
     61 N61         0.0784    1.3748    3.9541 N.am      1 UNK         0.0000 
     62 C62        -0.6885    2.5126    3.4390 C.3       1 UNK         0.0000 
     63 C63        -2.1886    2.4539    3.8105 C.3       1 UNK         0.0000 
     64 C64        -3.0463    3.4220    2.9579 C.3       1 UNK         0.0000 
     65 C65        -4.5641    3.1115    3.0209 C.3       1 UNK         0.0000 
     66 C66        -5.3904    3.5620    1.7793 C.3       1 UNK         0.0000 
     67 H67        -5.3480    4.6565    1.7405 H         1 UNK         0.0000 
     68 C68        -6.9120    3.2632    1.9014 C.3       1 UNK         0.0000 
     69 O69        -7.2688    1.9396    2.2307 O.3       1 UNK         0.0000 
     70 N70        -4.7849    3.1610    0.4948 N.am      1 UNK         0.0000 
     71 C71        -4.4625    1.9103    0.1099 C.2       1 UNK         0.0000 
     72 O72        -4.8969    0.9276    0.7066 O.2       1 UNK         0.0000 
     73 C73        -3.4585    1.8006   -1.0362 C.ar      1 UNK         0.0000 
     74 C74        -2.3880    0.8615   -1.0320 C.ar      1 UNK         0.0000 
     75 O75        -2.1498    0.1298   -0.0010 O.co2     1 UNK         0.0000 
     76 C76        -1.5168    0.7733   -2.1472 C.ar      1 UNK         0.0000 
     77 O77        -0.5227   -0.0350   -2.1893 O.co2     1 UNK         0.0000 
     78 C78        -1.6810    1.6366   -3.2300 C.ar      1 UNK         0.0000 
     79 C79        -2.7009    2.5859   -3.2202 C.ar      1 UNK         0.0000 
     80 C80        -3.5744    2.6741   -2.1370 C.ar      1 UNK         0.0000 
     81 H81         1.4660    0.2397    5.8337 H         1 UNK         0.0000 
     82 H82         2.7857   -1.4916    6.9022 H         1 UNK         0.0000 
     83 H83         3.4707   -3.5150    5.6591 H         1 UNK         0.0000 
     84 H84         2.8169   -3.7801    3.2872 H         1 UNK         0.0000 
     85 H85         0.3603    1.4363    4.9208 H         1 UNK         0.0000 
     86 H86        -0.2268    3.4513    3.7663 H         1 UNK         0.0000 
     87 H87        -0.6199    2.5419    2.3517 H         1 UNK         0.0000 
     88 H88        -2.5352    1.4233    3.6516 H         1 UNK         0.0000 
     89 H89        -2.3019    2.6763    4.8769 H         1 UNK         0.0000 
     90 H90        -2.7070    3.3343    1.9201 H         1 UNK         0.0000 
     91 H91        -2.8594    4.4595    3.2555 H         1 UNK         0.0000 
     92 H92        -4.9884    3.5754    3.9166 H         1 UNK         0.0000 
     93 H93        -4.7084    2.0360    3.1355 H         1 UNK         0.0000 
     94 H94        -7.3432    3.9112    2.6755 H         1 UNK         0.0000 
     95 H95        -7.4143    3.5323    0.9716 H         1 UNK         0.0000 
     96 H96        -8.0802    1.7301    1.7422 H         1 UNK         0.0000 
     97 H97        -4.5062    3.9109   -0.1177 H         1 UNK         0.0000 
     98 H98        -1.0056    1.5816   -4.0763 H         1 UNK         0.0000 
     99 H99        -2.8096    3.2611   -4.0598 H         1 UNK         0.0000 
    100 H100       -4.3487    3.4298   -2.1806 H         1 UNK         0.0000 
@<TRIPOS>BOND
     1    1   10 nc   
     2    1   25 nc   
     3    1   27 nc   
     4    1   60 nc   
     5    1   75 nc   
     6    1   77 nc   
     7    2    8 ar   
     8    2    3 ar   
     9    2   31 1    
    10    3    4 ar   
    11    3   32 1    
    12    4    5 ar   
    13    4   33 1    
    14    5   34 1    
    15    5    6 ar   
    16    6    7 1    
    17    6    8 ar   
    18    8    9 1    
    19    9   10 2    
    20    9   11 am   BACKBONE|DICT|INTERRES
    21   11   12 1    
    22   11   35 1    
    23   12   13 1    
    24   12   37 1    
    25   12   36 1    
    26   13   38 1    
    27   13   14 1    
    28   13   39 1    
    29   14   40 1    
    30   14   15 1    
    31   14   41 1    
    32   15   43 1    
    33   15   16 1    
    34   15   42 1    
    35   16   17 1    
    36   16   20 1    
    37   16   18 1    
    38   18   19 1    
    39   18   44 1    
    40   18   45 1    
    41   19   46 1    
    42   20   21 am   BACKBONE|DICT|INTERRES
    43   20   47 1    
    44   21   23 1    
    45   21   22 2    
    46   23   24 ar   
    47   23   30 ar   
    48   24   26 ar   
    49   24   25 1    
    50   26   27 1    
    51   26   28 ar   
    52   27   48 1    
    53   28   49 1    
    54   28   29 ar   
    55   29   30 ar   
    56   29   50 1    
    57   30   51 1    
    58   52   53 ar   
    59   52   81 1    
    60   52   58 ar   
    61   53   82 1    
    62   53   54 ar   
    63   54   83 1    
    64   54   55 ar   
    65   55   56 ar   
    66   55   84 1    
    67   56   58 ar   
    68   56   57 1    
    69   58   59 1    
    70   59   60 2    
    71   59   61 am   BACKBONE|DICT|INTERRES
    72   61   85 1    
    73   61   62 1    
    74   62   86 1    
    75   62   63 1    
    76   62   87 1    
    77   63   89 1    
    78   63   64 1    
    79   63   88 1    
    80   64   65 1    
    81   64   91 1    
    82   64   90 1    
    83   65   93 1    
    84   65   92 1    
    85   65   66 1    
    86   66   68 1    
    87   66   67 1    
    88   66   70 1    
    89   68   94 1    
    90   68   69 1    
    91   68   95 1    
    92   69   96 1    
    93   70   71 am   BACKBONE|DICT|INTERRES
    94   70   97 1    
    95   71   72 2    
    96   71   73 1    
    97   73   74 ar   
    98   73   80 ar   
    99   74   75 1    
   100   74   76 ar   
   101   76   77 1    
   102   76   78 ar   
   103   78   79 ar   
   104   78   98 1    
   105   79   80 ar   
   106   79   99 1    
   107   80  100 1    
@<TRIPOS>SUBSTRUCTURE
     1 UNK         1 GROUP             0       ****    0 ROOT    
