@<TRIPOS>MOLECULE
106_c1
112   117    1
SMALL
USER_CHARGES


@<TRIPOS>ATOM
      1 Fe1         0.0183    1.8304   -1.4444 Fe        1 UNK         0.0000 
      2 O2          4.6278   -2.1143    2.2164 O.2       1 UNK         0.0000 
      3 C3          3.5050   -2.5165    1.9254 C.2       1 UNK         0.0000 
      4 C4          2.5263   -1.6390    1.1525 C.3       1 UNK         0.0000 
      5 C5          2.2303   -0.2746    1.8105 C.3       1 UNK         0.0000 
      6 C6          1.2188    0.4553    0.9180 C.2       1 UNK         0.0000 
      7 O7          1.4225    0.5901   -0.2917 O.co2     1 UNK         0.0000 
      8 N8          0.0369    0.9685    1.3295 N.am      1 UNK         0.0000 
      9 O9         -0.7770    1.4229    0.3869 O.co2     1 UNK         0.0000 
     10 C10        -0.3430    1.3473    2.7045 C.3       1 UNK         0.0000 
     11 C11        -0.4489    2.8860    2.8768 C.3       1 UNK         0.0000 
     12 C12        -1.0017    3.3423    4.2385 C.3       1 UNK         0.0000 
     13 C13        -0.8616    4.8612    4.4837 C.3       1 UNK         0.0000 
     14 C14        -1.7336    5.7687    3.5889 C.3       1 UNK         0.0000 
     15 N15        -1.1836    6.0635    2.2571 N.am      1 UNK         0.0000 
     16 C16        -1.9189    6.1589    1.1347 C.2       1 UNK         0.0000 
     17 O17        -3.1111    5.8730    1.0962 O.2       1 UNK         0.0000 
     18 C18        -1.2342    6.7396   -0.1172 C.3       1 UNK         0.0000 
     19 C19        -1.5004    5.9999   -1.4575 C.3       1 UNK         0.0000 
     20 C20        -0.7289    4.6817   -1.5613 C.2       1 UNK         0.0000 
     21 O21        -1.2754    3.5749   -1.5078 O.co2     1 UNK         0.0000 
     22 N22         0.6198    4.6312   -1.6382 N.am      1 UNK         0.0000 
     23 O23         1.2036    3.4488   -1.5669 O.co2     1 UNK         0.0000 
     24 C24         1.5191    5.7384   -2.0203 C.3       1 UNK         0.0000 
     25 C25         2.2799    5.4092   -3.3263 C.3       1 UNK         0.0000 
     26 C26         3.0542    6.5498   -4.0099 C.3       1 UNK         0.0000 
     27 C27         3.9343    6.0851   -5.2013 C.3       1 UNK         0.0000 
     28 C28         3.2768    5.1309   -6.2257 C.3       1 UNK         0.0000 
     29 N29         3.3092    3.7163   -5.8229 N.am      1 UNK         0.0000 
     30 C30         2.2474    2.8960   -5.7550 C.2       1 UNK         0.0000 
     31 O31         1.1012    3.2570   -6.0018 O.2       1 UNK         0.0000 
     32 C32         2.5242    1.4346   -5.3647 C.3       1 UNK         0.0000 
     33 C33         1.2719    0.5161   -5.2315 C.3       1 UNK         0.0000 
     34 C34         0.4910    0.7229   -3.9314 C.2       1 UNK         0.0000 
     35 O35         0.9072    1.3572   -2.9524 O.co2     1 UNK         0.0000 
     36 N36        -0.7814    0.3275   -3.6722 N.am      1 UNK         0.0000 
     37 O37        -1.2629    0.7369   -2.4872 O.co2     1 UNK         0.0000 
     38 C38        -1.6883   -0.3939   -4.5644 C.3       1 UNK         0.0000 
     39 C39        -2.1707   -1.7535   -4.0136 C.3       1 UNK         0.0000 
     40 C40        -1.0880   -2.8574   -3.9772 C.3       1 UNK         0.0000 
     41 C41        -1.7061   -4.2376   -3.6928 C.3       1 UNK         0.0000 
     42 N42        -0.7523   -5.3521   -3.6999 N.am      1 UNK         0.0000 
     43 C43        -0.7267   -6.3208   -2.7677 C.2       1 UNK         0.0000 
     44 O44        -1.4417   -6.2915   -1.7716 O.2       1 UNK         0.0000 
     45 C45         0.2378   -7.4939   -3.0043 C.3       1 UNK         0.0000 
     46 C46         0.0387   -8.7609   -2.1175 C.3       1 UNK         0.0000 
     47 C47         0.3767   -8.6225   -0.6148 C.2       1 UNK         0.0000 
     48 O48        -0.5232   -8.8244    0.2034 O.2       1 UNK         0.0000 
     49 N49         1.6502   -8.3508   -0.2169 N.am      1 UNK         0.0000 
     50 O50         2.6747   -8.4366   -1.1838 O.3       1 UNK         0.0000 
     51 C51         2.0920   -7.9854    1.1377 C.3       1 UNK         0.0000 
     52 C52         2.7363   -6.5818    1.2109 C.3       1 UNK         0.0000 
     53 C53         3.0877   -6.1568    2.6583 C.3       1 UNK         0.0000 
     54 C54         3.8328   -4.8190    2.7910 C.3       1 UNK         0.0000 
     55 N55         3.0576   -3.7442    2.1971 N.am      1 UNK         0.0000 
     56 H56         1.5880   -2.1871    1.0386 H         1 UNK         0.0000 
     57 H57         2.9844   -1.5061    0.1719 H         1 UNK         0.0000 
     58 H58         1.8447   -0.4105    2.8162 H         1 UNK         0.0000 
     59 H59         3.1182    0.3541    1.8361 H         1 UNK         0.0000 
     60 H60        -1.3015    0.8777    2.9459 H         1 UNK         0.0000 
     61 H61         0.3342    0.9642    3.4681 H         1 UNK         0.0000 
     62 H62        -1.1013    3.2864    2.0995 H         1 UNK         0.0000 
     63 H63         0.5406    3.3177    2.7219 H         1 UNK         0.0000 
     64 H64        -0.4921    2.8030    5.0395 H         1 UNK         0.0000 
     65 H65        -2.0567    3.0618    4.3007 H         1 UNK         0.0000 
     66 H66         0.1841    5.1645    4.4412 H         1 UNK         0.0000 
     67 H67        -1.1558    5.0389    5.5177 H         1 UNK         0.0000 
     68 H68        -1.9049    6.7163    4.0987 H         1 UNK         0.0000 
     69 H69        -2.7248    5.3155    3.5094 H         1 UNK         0.0000 
     70 H70        -0.2057    6.2923    2.2016 H         1 UNK         0.0000 
     71 H71        -0.1751    6.9398    0.0249 H         1 UNK         0.0000 
     72 H72        -1.6830    7.7278   -0.2169 H         1 UNK         0.0000 
     73 H73        -2.5630    5.8691   -1.6504 H         1 UNK         0.0000 
     74 H74        -1.1722    6.6266   -2.2892 H         1 UNK         0.0000 
     75 H75         2.2189    5.9265   -1.2046 H         1 UNK         0.0000 
     76 H76         0.9967    6.6867   -2.1330 H         1 UNK         0.0000 
     77 H77         2.9706    4.5899   -3.1184 H         1 UNK         0.0000 
     78 H78         1.5405    5.0307   -4.0316 H         1 UNK         0.0000 
     79 H79         2.3349    7.2949   -4.3626 H         1 UNK         0.0000 
     80 H80         3.6914    7.0531   -3.2748 H         1 UNK         0.0000 
     81 H81         4.8597    5.6418   -4.8308 H         1 UNK         0.0000 
     82 H82         4.2505    6.9824   -5.7313 H         1 UNK         0.0000 
     83 H83         3.7799    5.2265   -7.1861 H         1 UNK         0.0000 
     84 H84         2.2575    5.4714   -6.4160 H         1 UNK         0.0000 
     85 H85         4.2172    3.3231   -5.6363 H         1 UNK         0.0000 
     86 H86         3.1667    1.3705   -4.4873 H         1 UNK         0.0000 
     87 H87         3.1236    1.0418   -6.1808 H         1 UNK         0.0000 
     88 H88         0.6396    0.5883   -6.1173 H         1 UNK         0.0000 
     89 H89         1.6121   -0.5151   -5.1796 H         1 UNK         0.0000 
     90 H90        -1.2509   -0.5585   -5.5533 H         1 UNK         0.0000 
     91 H91        -2.5504    0.2510   -4.7438 H         1 UNK         0.0000 
     92 H92        -2.5970   -1.6135   -3.0164 H         1 UNK         0.0000 
     93 H93        -2.9980   -2.0815   -4.6470 H         1 UNK         0.0000 
     94 H94        -0.5554   -2.8684   -4.9290 H         1 UNK         0.0000 
     95 H95        -0.3586   -2.6181   -3.2001 H         1 UNK         0.0000 
     96 H96        -2.4809   -4.4495   -4.4324 H         1 UNK         0.0000 
     97 H97        -2.2551   -4.1757   -2.7484 H         1 UNK         0.0000 
     98 H98        -0.1482   -5.4411   -4.5001 H         1 UNK         0.0000 
     99 H99         0.0429   -7.8187   -4.0260 H         1 UNK         0.0000 
    100 H100        1.2777   -7.1754   -3.0203 H         1 UNK         0.0000 
    101 H101        0.6869   -9.5495   -2.5008 H         1 UNK         0.0000 
    102 H102       -0.9575   -9.1785   -2.2665 H         1 UNK         0.0000 
    103 H103        3.1367   -9.2476   -0.9481 H         1 UNK         0.0000 
    104 H104        2.7968   -8.7333    1.5110 H         1 UNK         0.0000 
    105 H105        1.2490   -8.0271    1.8355 H         1 UNK         0.0000 
    106 H106        3.6453   -6.5804    0.6049 H         1 UNK         0.0000 
    107 H107        2.0505   -5.8600    0.7582 H         1 UNK         0.0000 
    108 H108        2.1731   -6.1082    3.2503 H         1 UNK         0.0000 
    109 H109        3.7009   -6.9275    3.1230 H         1 UNK         0.0000 
    110 H110        4.7836   -4.8759    2.2565 H         1 UNK         0.0000 
    111 H111        4.0613   -4.5900    3.8332 H         1 UNK         0.0000 
    112 H112        2.1003   -3.9489    1.9630 H         1 UNK         0.0000 
@<TRIPOS>BOND
     1    1    7 nc   
     2    1    9 nc   
     3    1   21 nc   
     4    1   23 nc   
     5    1   35 nc   
     6    1   37 nc   
     7    2    3 2    
     8    3   55 am   BACKBONE|DICT|INTERRES
     9    3    4 1    
    10    4    5 1    
    11    4   56 1    
    12    4   57 1    
    13    5   58 1    
    14    5    6 1    
    15    5   59 1    
    16    6    7 2    
    17    6    8 am   BACKBONE|DICT|INTERRES
    18    8   10 1    
    19    8    9 1    
    20   10   11 1    
    21   10   60 1    
    22   10   61 1    
    23   11   12 1    
    24   11   62 1    
    25   11   63 1    
    26   12   65 1    
    27   12   13 1    
    28   12   64 1    
    29   13   66 1    
    30   13   67 1    
    31   13   14 1    
    32   14   68 1    
    33   14   15 1    
    34   14   69 1    
    35   15   16 am   BACKBONE|DICT|INTERRES
    36   15   70 1    
    37   16   17 2    
    38   16   18 1    
    39   18   71 1    
    40   18   19 1    
    41   18   72 1    
    42   19   20 1    
    43   19   73 1    
    44   19   74 1    
    45   20   21 2    
    46   20   22 am   BACKBONE|DICT|INTERRES
    47   22   23 1    
    48   22   24 1    
    49   24   75 1    
    50   24   25 1    
    51   24   76 1    
    52   25   77 1    
    53   25   26 1    
    54   25   78 1    
    55   26   80 1    
    56   26   27 1    
    57   26   79 1    
    58   27   81 1    
    59   27   28 1    
    60   27   82 1    
    61   28   29 1    
    62   28   83 1    
    63   28   84 1    
    64   29   30 am   BACKBONE|DICT|INTERRES
    65   29   85 1    
    66   30   32 1    
    67   30   31 2    
    68   32   33 1    
    69   32   86 1    
    70   32   87 1    
    71   33   34 1    
    72   33   88 1    
    73   33   89 1    
    74   34   36 am   BACKBONE|DICT|INTERRES
    75   34   35 2    
    76   36   37 1    
    77   36   38 1    
    78   38   39 1    
    79   38   90 1    
    80   38   91 1    
    81   39   40 1    
    82   39   92 1    
    83   39   93 1    
    84   40   41 1    
    85   40   95 1    
    86   40   94 1    
    87   41   97 1    
    88   41   42 1    
    89   41   96 1    
    90   42   43 am   BACKBONE|DICT|INTERRES
    91   42   98 1    
    92   43   44 2    
    93   43   45 1    
    94   45  100 1    
    95   45   46 1    
    96   45   99 1    
    97   46   47 1    
    98   46  101 1    
    99   46  102 1    
   100   47   49 am   BACKBONE|DICT|INTERRES
   101   47   48 2    
   102   49   51 1    
   103   49   50 1    
   104   50  103 1    
   105   51   52 1    
   106   51  104 1    
   107   51  105 1    
   108   52   53 1    
   109   52  106 1    
   110   52  107 1    
   111   53   54 1    
   112   53  109 1    
   113   53  108 1    
   114   54  111 1    
   115   54   55 1    
   116   54  110 1    
   117   55  112 1    
@<TRIPOS>SUBSTRUCTURE
     1 UNK         1 GROUP             0       ****    0 ROOT    
