@<TRIPOS>MOLECULE
120_c1
71   80    1
SMALL
USER_CHARGES


@<TRIPOS>ATOM
      1 Fe1         0.0001   -0.2030    0.1912 Fe        1 UNK         0.0000 
      2 O2          1.2731    1.5942   -0.4679 O.co2     1 UNK         0.0000 
      3 C3          2.3670    0.9912   -0.4766 C.2       1 UNK         0.0000 
      4 O4          2.2438   -0.0799    0.1387 O.co2     1 UNK         0.0000 
      5 C5          3.4732    1.1672   -1.5714 C.3       1 UNK         0.0000 
      6 H6          4.3503    1.6012   -1.0847 H         1 UNK         0.0000 
      7 C7          3.0636    2.0389   -2.8074 C.3       1 UNK         0.0000 
      8 S8          2.6835    0.8865   -4.2025 S.3       1 UNK         0.0000 
      9 C9          2.6735   -0.4707   -3.0308 C.3       1 UNK         0.0000 
     10 H10         1.7559   -0.1086   -2.5826 H         1 UNK         0.0000 
     11 N11         3.7843   -0.1786   -2.1071 N.3       1 UNK         0.0000 
     12 C12         5.1588   -0.3117   -2.6176 C.3       1 UNK         0.0000 
     13 C13         2.1487   -1.9439   -3.2136 C.3       1 UNK         0.0000 
     14 H14         1.4840   -1.9475   -4.0824 H         1 UNK         0.0000 
     15 N15         1.3116   -2.3091   -2.0838 N.2       1 UNK         0.0000 
     16 C16         1.3605   -3.5325   -1.7016 C.2       1 UNK         0.0000 
     17 S17         2.4759   -4.5427   -2.7030 S.3       1 UNK         0.0000 
     18 C18         3.2072   -3.0306   -3.3685 C.3       1 UNK         0.0000 
     19 C19         0.6273   -4.1147   -0.5097 C.ar      1 UNK         0.0000 
     20 C20        -0.1559   -3.3278    0.3858 C.ar      1 UNK         0.0000 
     21 O21        -0.3685   -2.0832    0.2319 O.co2     1 UNK         0.0000 
     22 C22        -0.7687   -3.8829    1.5012 C.ar      1 UNK         0.0000 
     23 C23        -0.6215   -5.2324    1.7972 C.ar      1 UNK         0.0000 
     24 C24         0.1464   -6.0299    0.9619 C.ar      1 UNK         0.0000 
     25 C25         0.7531   -5.4917   -0.1788 C.ar      1 UNK         0.0000 
     26 H26         3.8690    2.7255   -3.1037 H         1 UNK         0.0000 
     27 H27         2.1878    2.6576   -2.6001 H         1 UNK         0.0000 
     28 H28         5.4028    0.4288   -3.3821 H         1 UNK         0.0000 
     29 H29         5.8849   -0.1810   -1.8115 H         1 UNK         0.0000 
     30 H30         5.3649   -1.2913   -3.0479 H         1 UNK         0.0000 
     31 H31         3.5517   -3.1391   -4.4025 H         1 UNK         0.0000 
     32 H32         4.0539   -2.8510   -2.7118 H         1 UNK         0.0000 
     33 H33        -1.3728   -3.2549    2.1612 H         1 UNK         0.0000 
     34 H34        -1.0958   -5.6361    2.6670 H         1 UNK         0.0000 
     35 H35         0.2435   -7.0658    1.2131 H         1 UNK         0.0000 
     36 H36         1.3008   -6.1855   -0.8043 H         1 UNK         0.0000 
     37 O37        -1.2766    0.4578   -1.6029 O.co2     1 UNK         0.0000 
     38 C38        -2.3689    0.4653   -0.9980 C.2       1 UNK         0.0000 
     39 O39        -2.2437   -0.1517    0.0717 O.co2     1 UNK         0.0000 
     40 C40        -3.4776    1.5584   -1.1701 C.3       1 UNK         0.0000 
     41 H41        -4.3530    1.0720   -1.6079 H         1 UNK         0.0000 
     42 C42        -3.0700    2.7987   -2.0366 C.3       1 UNK         0.0000 
     43 S43        -2.6930    4.1899   -0.8793 S.3       1 UNK         0.0000 
     44 C44        -2.6830    3.0141    0.4738 C.3       1 UNK         0.0000 
     45 H45        -1.7645    2.5677    0.1119 H         1 UNK         0.0000 
     46 N46        -3.7913    2.0889    0.1771 N.3       1 UNK         0.0000 
     47 C47        -5.1666    2.5976    0.3086 C.3       1 UNK         0.0000 
     48 C48        -2.1626    3.1964    1.9485 C.3       1 UNK         0.0000 
     49 H49        -1.5055    4.0708    1.9560 H         1 UNK         0.0000 
     50 N50        -1.3163    2.0724    2.3103 N.2       1 UNK         0.0000 
     51 C51        -1.3653    1.6834    3.5310 C.2       1 UNK         0.0000 
     52 S52        -2.4909    2.6709    4.5439 S.3       1 UNK         0.0000 
     53 C53        -3.2243    3.3401    3.0344 C.3       1 UNK         0.0000 
     54 C54        -0.6239    0.4955    4.1083 C.ar      1 UNK         0.0000 
     55 C55         0.1620   -0.3949    3.3178 C.ar      1 UNK         0.0000 
     56 O56         0.3673   -0.2404    2.0715 O.co2     1 UNK         0.0000 
     57 C57         0.7833   -1.5058    3.8709 C.ar      1 UNK         0.0000 
     58 C58         0.6409   -1.8044    5.2206 C.ar      1 UNK         0.0000 
     59 C59        -0.1313   -0.9748    6.0204 C.ar      1 UNK         0.0000 
     60 C60        -0.7451    0.1625    5.4849 C.ar      1 UNK         0.0000 
     61 H61        -3.8759    3.0974   -2.7216 H         1 UNK         0.0000 
     62 H62        -2.1933    2.5977   -2.6558 H         1 UNK         0.0000 
     63 H63        -5.4088    3.3632   -0.4313 H         1 UNK         0.0000 
     64 H64        -5.8919    1.7913    0.1751 H         1 UNK         0.0000 
     65 H65        -5.3742    3.0260    1.2883 H         1 UNK         0.0000 
     66 H66        -3.5734    4.3722    3.1493 H         1 UNK         0.0000 
     67 H67        -4.0677    2.6795    2.8506 H         1 UNK         0.0000 
     68 H68         1.3890   -2.1623    3.2413 H         1 UNK         0.0000 
     69 H69         1.1210   -2.6710    5.6230 H         1 UNK         0.0000 
     70 H70        -0.2256   -1.2265    7.0562 H         1 UNK         0.0000 
     71 H71        -1.2958    0.7845    6.1797 H         1 UNK         0.0000 
@<TRIPOS>BOND
     1    1    2 nc   
     2    1    4 nc   
     3    1   21 nc   
     4    1   37 nc   
     5    1   39 nc   
     6    1   56 nc   
     7    2    3 2    
     8    3    4 1    
     9    3    5 1    
    10    5    6 1    
    11    5    7 1    
    12    5   11 1    
    13    7   27 1    
    14    7    8 1    
    15    7   26 1    
    16    8    9 1    
    17    9   10 1    
    18    9   11 1    
    19    9   13 1    
    20   11   12 1    
    21   12   29 1    
    22   12   28 1    
    23   12   30 1    
    24   13   14 1    
    25   13   15 1    
    26   13   18 1    
    27   15   16 2    
    28   16   19 1    
    29   16   17 1    
    30   17   18 1    
    31   18   32 1    
    32   18   31 1    
    33   19   25 ar   
    34   19   20 ar   
    35   20   22 ar   
    36   20   21 1    
    37   22   23 ar   
    38   22   33 1    
    39   23   34 1    
    40   23   24 ar   
    41   24   35 1    
    42   24   25 ar   
    43   25   36 1    
    44   37   38 2    
    45   38   39 1    
    46   38   40 1    
    47   40   41 1    
    48   40   46 1    
    49   40   42 1    
    50   42   43 1    
    51   42   61 1    
    52   42   62 1    
    53   43   44 1    
    54   44   45 1    
    55   44   48 1    
    56   44   46 1    
    57   46   47 1    
    58   47   65 1    
    59   47   63 1    
    60   47   64 1    
    61   48   49 1    
    62   48   50 1    
    63   48   53 1    
    64   50   51 2    
    65   51   54 1    
    66   51   52 1    
    67   52   53 1    
    68   53   66 1    
    69   53   67 1    
    70   54   60 ar   
    71   54   55 ar   
    72   55   57 ar   
    73   55   56 1    
    74   57   58 ar   
    75   57   68 1    
    76   58   69 1    
    77   58   59 ar   
    78   59   70 1    
    79   59   60 ar   
    80   60   71 1    
@<TRIPOS>SUBSTRUCTURE
     1 UNK         1 GROUP             0       ****    0 ROOT    
