@<TRIPOS>MOLECULE
010_c1
65   71    1
SMALL
USER_CHARGES


@<TRIPOS>ATOM
      1 O1          2.3850   -3.2245    0.0817 O.co2     1 UNK         0.0000 
      2 O2          5.8481   -4.8438    1.5208 O.co2     1 UNK         0.0000 
      3 O3         -1.2851   -1.4561   -0.4355 O.2       1 UNK         0.0000 
      4 O4          3.4655   -3.2768    2.6028 O.co2     1 UNK         0.0000 
      5 O5          1.5768   -2.5303    3.5735 O.co2     1 UNK         0.0000 
      6 O6         -2.4508   -4.3185   -0.2295 O.3       1 UNK         0.0000 
      7 O7          7.2028   -7.4508    2.4027 O.3       1 UNK         0.0000 
      8 O8         10.3992   -4.8520    1.4647 O.2       1 UNK         0.0000 
      9 O9         -2.6692   -3.5187    1.9005 O.2       1 UNK         0.0000 
     10 O10         5.2801   -2.5500    0.3527 O.co2     1 UNK         0.0000 
     11 O11         7.3126   -1.6912    0.8216 O.co2     1 UNK         0.0000 
     12 O12         3.1787   -5.9014    1.5457 O.co2     1 UNK         0.0000 
     13 O13         1.1161   -7.7295   -1.4225 O.2       1 UNK         0.0000 
     14 O14         6.6105   -8.5984    0.5403 O.2       1 UNK         0.0000 
     15 O15         4.3045   -5.3645   -0.8256 O.co2     1 UNK         0.0000 
     16 O16         4.4264   -7.5155   -1.4486 O.co2     1 UNK         0.0000 
     17 N17         0.2903   -2.5915    0.9052 N.am      1 UNK         0.0000 
     18 N18         8.1063   -4.4952    1.7922 N.am      1 UNK         0.0000 
     19 N19        -0.0025   -6.8893    0.2479 N.am      1 UNK         0.0000 
     20 C20         1.7703   -2.4553    1.1056 C.3       1 UNK         0.0000 
     21 C21         2.0546   -0.9882    0.7698 C.3       1 UNK         0.0000 
     22 C22        -0.4335   -3.9322    0.9593 C.3       1 UNK         0.0000 
     23 C23         0.9532   -0.5785   -0.1652 C.3       1 UNK         0.0000 
     24 C24        -0.1796   -1.5630    0.1162 C.2       1 UNK         0.0000 
     25 C25        -0.0104   -5.0356    1.9857 C.3       1 UNK         0.0000 
     26 C26         6.9243   -4.1460    0.9671 C.3       1 UNK         0.0000 
     27 C27         7.3390   -4.8114   -0.3457 C.3       1 UNK         0.0000 
     28 C28         8.8379   -4.5629   -0.4005 C.3       1 UNK         0.0000 
     29 C29         2.2855   -2.7878    2.5724 C.2       1 UNK         0.0000 
     30 C30        -0.3894   -6.4922    1.6073 C.3       1 UNK         0.0000 
     31 C31         9.2525   -4.6045    1.0674 C.2       1 UNK         0.0000 
     32 C32         8.0274   -5.1297    3.1480 C.3       1 UNK         0.0000 
     33 C33        -1.9823   -3.8565    0.9594 C.2       1 UNK         0.0000 
     34 C34         6.4974   -2.6419    0.7467 C.2       1 UNK         0.0000 
     35 C35         7.0853   -6.3918    3.3750 C.3       1 UNK         0.0000 
     36 C36         3.5997   -7.0479    0.8367 C.3       1 UNK         0.0000 
     37 C37         2.3093   -7.9447    0.6704 C.3       1 UNK         0.0000 
     38 C38         1.1259   -7.4654   -0.2238 C.2       1 UNK         0.0000 
     39 C39         4.6920   -7.7826    1.7735 C.3       1 UNK         0.0000 
     40 C40         6.2347   -7.8963    1.4837 C.2       1 UNK         0.0000 
     41 C41         4.1745   -6.6287   -0.6053 C.2       1 UNK         0.0000 
     42 H42         1.9598   -0.3841    1.6796 H         1 UNK         0.0000 
     43 H43         3.0570   -0.7823    0.3731 H         1 UNK         0.0000 
     44 H44        -0.1354   -4.3463   -0.0064 H         1 UNK         0.0000 
     45 H45         0.6444    0.4617   -0.0456 H         1 UNK         0.0000 
     46 H46         1.2676   -0.7231   -1.2026 H         1 UNK         0.0000 
     47 H47         1.0570   -5.0469    2.1002 H         1 UNK         0.0000 
     48 H48        -0.3915   -4.7980    2.9827 H         1 UNK         0.0000 
     49 H49         7.1633   -5.8899   -0.3266 H         1 UNK         0.0000 
     50 H50         6.8172   -4.4229   -1.2198 H         1 UNK         0.0000 
     51 H51         9.3490   -5.3215   -0.9933 H         1 UNK         0.0000 
     52 H52         9.0986   -3.5778   -0.8055 H         1 UNK         0.0000 
     53 H53        -0.0097   -7.2026    2.3471 H         1 UNK         0.0000 
     54 H54        -1.4806   -6.5910    1.6286 H         1 UNK         0.0000 
     55 H55         7.6725   -4.3451    3.8143 H         1 UNK         0.0000 
     56 H56         9.0336   -5.3771    3.4893 H         1 UNK         0.0000 
     57 H57         6.0468   -6.0743    3.4670 H         1 UNK         0.0000 
     58 H58         7.3080   -6.7851    4.3691 H         1 UNK         0.0000 
     59 H59        -0.6714   -6.7314   -0.4919 H         1 UNK         0.0000 
     60 H60         1.9083   -8.1694    1.6573 H         1 UNK         0.0000 
     61 H61         2.6096   -8.9064    0.2579 H         1 UNK         0.0000 
     62 H62         4.5678   -7.4455    2.8044 H         1 UNK         0.0000 
     63 H63         4.3960   -8.8314    1.8200 H         1 UNK         0.0000 
     64 H64        -1.6759   -4.3720   -0.7952 H         1 UNK         0.0000 
     65 Fe65        4.0719   -4.1881    0.8594 Fe        1 UNK         0.0000 
@<TRIPOS>BOND
     1    1   20 1    
     2    1   65 nc   
     3    2   26 1    
     4    2   65 nc   
     5    3   24 2    
     6    4   29 1    
     7    4   65 nc   
     8    5   29 2    
     9    6   33 1    
    10    6   64 1    
    11    7   35 1    
    12    7   40 1    
    13    8   31 2    
    14    9   33 2    
    15   10   34 1    
    16   10   65 nc   
    17   11   34 2    
    18   12   36 1    
    19   12   65 nc   
    20   13   38 2    
    21   14   40 2    
    22   15   41 1    
    23   15   65 nc   
    24   16   41 2    
    25   17   20 1    
    26   17   22 1    
    27   17   24 am   BACKBONE|DICT|INTERRES
    28   18   26 1    
    29   18   31 am   BACKBONE|DICT|INTERRES
    30   18   32 1    
    31   19   30 1    
    32   19   38 am   BACKBONE|DICT|INTERRES
    33   19   59 1    
    34   20   21 1    
    35   20   29 1    
    36   21   23 1    
    37   21   42 1    
    38   21   43 1    
    39   22   25 1    
    40   22   33 1    
    41   22   44 1    
    42   23   24 1    
    43   23   45 1    
    44   23   46 1    
    45   25   30 1    
    46   25   47 1    
    47   25   48 1    
    48   26   27 1    
    49   26   34 1    
    50   27   28 1    
    51   27   49 1    
    52   27   50 1    
    53   28   31 1    
    54   28   51 1    
    55   28   52 1    
    56   30   53 1    
    57   30   54 1    
    58   32   35 1    
    59   32   55 1    
    60   32   56 1    
    61   35   57 1    
    62   35   58 1    
    63   36   37 1    
    64   36   39 1    
    65   36   41 1    
    66   37   38 1    
    67   37   60 1    
    68   37   61 1    
    69   39   40 1    
    70   39   62 1    
    71   39   63 1    
@<TRIPOS>SUBSTRUCTURE
     1 UNK         1 GROUP             0       ****    0 ROOT    
