@<TRIPOS>MOLECULE
257_c1
99   104    1
SMALL
USER_CHARGES


@<TRIPOS>ATOM
      1 Fe1         0.0014    0.1740   -0.1752 Fe        1 UNK         0.0000 
      2 N2          8.0817   -4.1552   -8.3493 N.pl3     1 UNK         0.0000 
      3 C3          7.3030   -3.1179   -8.6832 C.cat     1 UNK         0.0000 
      4 N4          7.5183   -2.5006   -9.8431 N.pl3     1 UNK         0.0000 
      5 H5          8.2436   -2.7781  -10.4877 H         1 UNK         0.0000 
      6 H6          6.9522   -1.7233  -10.1555 H         1 UNK         0.0000 
      7 N7          6.3218   -2.7137   -7.8556 N.pl3     1 UNK         0.0000 
      8 C8          5.9317   -3.2990   -6.5524 C.3       1 UNK         0.0000 
      9 C9          4.6247   -2.6392   -6.0243 C.3       1 UNK         0.0000 
     10 C10         4.0744   -3.2796   -4.7300 C.3       1 UNK         0.0000 
     11 C11         2.6359   -2.7549   -4.3122 C.3       1 UNK         0.0000 
     12 H12         1.9967   -2.8421   -5.1989 H         1 UNK         0.0000 
     13 C13         1.8832   -3.6399   -3.2722 C.2       1 UNK         0.0000 
     14 O14         2.3345   -4.7598   -2.9967 O.2       1 UNK         0.0000 
     15 N15         0.7417   -3.1417   -2.7631 N.am      1 UNK         0.0000 
     16 C16        -0.1825   -3.8223   -1.8301 C.3       1 UNK         0.0000 
     17 H17         0.4075   -4.3744   -1.0953 H         1 UNK         0.0000 
     18 C18        -1.0153   -2.7963   -0.9361 C.2       1 UNK         0.0000 
     19 O19        -0.2743   -1.9672   -0.3117 O.co2     1 UNK         0.0000 
     20 O20        -2.1521   -3.2246   -0.6209 O.co2     1 UNK         0.0000 
     21 C21        -1.1657   -4.7896   -2.5864 C.3       1 UNK         0.0000 
     22 O22        -0.5545   -5.9581   -3.0975 O.3       1 UNK         0.0000 
     23 N23         2.6113   -1.3415   -3.9237 N.am      1 UNK         0.0000 
     24 C24         3.3452   -0.7534   -2.9684 C.2       1 UNK         0.0000 
     25 O25         4.3850   -1.2469   -2.5110 O.2       1 UNK         0.0000 
     26 C26         2.7841    0.5967   -2.5760 C.ar      1 UNK         0.0000 
     27 C27         2.1876    0.8214   -1.3035 C.ar      1 UNK         0.0000 
     28 O28         2.1770   -0.1049   -0.4281 O.co2     1 UNK         0.0000 
     29 C29         1.4891    2.0356   -1.0676 C.ar      1 UNK         0.0000 
     30 O30         0.7308    2.2079   -0.0595 O.co2     1 UNK         0.0000 
     31 C31         1.4686    3.0264   -2.0377 C.ar      1 UNK         0.0000 
     32 C32         2.0611    2.8182   -3.2738 C.ar      1 UNK         0.0000 
     33 C33         2.7015    1.6048   -3.5511 C.ar      1 UNK         0.0000 
     34 H34         7.9356   -4.6304   -7.4680 H         1 UNK         0.0000 
     35 H35         8.8335   -4.5018   -8.9254 H         1 UNK         0.0000 
     36 H36         5.7593   -1.8906   -8.0458 H         1 UNK         0.0000 
     37 H37         6.7532   -3.1227   -5.8537 H         1 UNK         0.0000 
     38 H38         5.8122   -4.3825   -6.6415 H         1 UNK         0.0000 
     39 H39         4.8056   -1.5789   -5.8245 H         1 UNK         0.0000 
     40 H40         3.8557   -2.6725   -6.8013 H         1 UNK         0.0000 
     41 H41         4.7908   -3.1413   -3.9183 H         1 UNK         0.0000 
     42 H42         4.0335   -4.3533   -4.8786 H         1 UNK         0.0000 
     43 H43         0.4618   -2.1823   -2.9451 H         1 UNK         0.0000 
     44 H44        -1.6797   -4.2549   -3.3828 H         1 UNK         0.0000 
     45 H45        -1.9321   -5.1762   -1.9233 H         1 UNK         0.0000 
     46 H46         0.0272   -6.2729   -2.3922 H         1 UNK         0.0000 
     47 H47         1.7377   -0.8447   -4.0698 H         1 UNK         0.0000 
     48 H48         0.8864    3.9177   -1.8531 H         1 UNK         0.0000 
     49 H49         1.9596    3.5685   -4.0356 H         1 UNK         0.0000 
     50 H50         3.0915    1.4075   -4.5469 H         1 UNK         0.0000 
     51 N51        -8.0643    8.3672    4.1643 N.pl3     1 UNK         0.0000 
     52 C52        -7.2912    8.6969    3.1242 C.cat     1 UNK         0.0000 
     53 N53        -7.5061    9.8565    2.5047 N.pl3     1 UNK         0.0000 
     54 H54        -8.2313   10.5026    2.7820 H         1 UNK         0.0000 
     55 H55        -6.9452   10.1644    1.7221 H         1 UNK         0.0000 
     56 N56        -6.3119    7.8656    2.7164 N.pl3     1 UNK         0.0000 
     57 C57        -5.9243    6.5603    3.2999 C.3       1 UNK         0.0000 
     58 C58        -4.6204    6.0283    2.6353 C.3       1 UNK         0.0000 
     59 C59        -4.0700    4.7350    3.2729 C.3       1 UNK         0.0000 
     60 C60        -2.6306    4.3180    2.7471 C.3       1 UNK         0.0000 
     61 H61        -1.9925    5.2056    2.8338 H         1 UNK         0.0000 
     62 C62        -1.8760    3.2786    3.6305 C.2       1 UNK         0.0000 
     63 O63        -2.3226    3.0077    4.7529 O.2       1 UNK         0.0000 
     64 N64        -0.7369    2.7668    3.1295 N.am      1 UNK         0.0000 
     65 C65         0.1919    1.8400    3.8134 C.3       1 UNK         0.0000 
     66 H66        -0.3951    1.1120    4.3770 H         1 UNK         0.0000 
     67 C67         1.0176    0.9318    2.7947 C.2       1 UNK         0.0000 
     68 O68         0.2720    0.3109    1.9669 O.co2     1 UNK         0.0000 
     69 O69         2.1457    0.6017    3.2348 O.co2     1 UNK         0.0000 
     70 C70         1.1818    2.6068    4.7657 C.3       1 UNK         0.0000 
     71 O71         0.5762    3.1345    5.9296 O.3       1 UNK         0.0000 
     72 N72        -2.6062    3.9311    1.3323 N.am      1 UNK         0.0000 
     73 C73        -3.3405    2.9748    0.7448 C.2       1 UNK         0.0000 
     74 O74        -4.3786    2.5161    1.2360 O.2       1 UNK         0.0000 
     75 C75        -2.7721    2.5826   -0.6059 C.ar      1 UNK         0.0000 
     76 C76        -2.1810    1.3072   -0.8280 C.ar      1 UNK         0.0000 
     77 O77        -2.1744    0.4323    0.0979 O.co2     1 UNK         0.0000 
     78 C78        -1.4781    1.0713   -2.0413 C.ar      1 UNK         0.0000 
     79 O79        -0.7234    0.0600   -2.2105 O.co2     1 UNK         0.0000 
     80 C80        -1.4501    2.0414   -3.0294 C.ar      1 UNK         0.0000 
     81 C81        -2.0363    3.2804   -2.8225 C.ar      1 UNK         0.0000 
     82 C82        -2.6829    3.5576   -1.6113 C.ar      1 UNK         0.0000 
     83 H83        -7.9183    7.4863    4.6407 H         1 UNK         0.0000 
     84 H84        -8.8162    8.9439    4.5116 H         1 UNK         0.0000 
     85 H85        -5.7527    8.0544    1.8911 H         1 UNK         0.0000 
     86 H86        -6.7479    5.8644    3.1262 H         1 UNK         0.0000 
     87 H87        -5.8008    6.6488    4.3824 H         1 UNK         0.0000 
     88 H88        -4.8049    5.8294    1.5752 H         1 UNK         0.0000 
     89 H89        -3.8500    6.8047    2.6659 H         1 UNK         0.0000 
     90 H90        -4.7846    3.9213    3.1337 H         1 UNK         0.0000 
     91 H91        -4.0280    4.8807    4.3473 H         1 UNK         0.0000 
     92 H92        -0.4603    2.9437    2.1678 H         1 UNK         0.0000 
     93 H93         1.6944    3.3947    4.2175 H         1 UNK         0.0000 
     94 H94         1.9491    1.9484    5.1578 H         1 UNK         0.0000 
     95 H95        -0.0083    2.4353    6.2534 H         1 UNK         0.0000 
     96 H96        -1.7343    4.0782    0.8355 H         1 UNK         0.0000 
     97 H97        -0.8637    1.8557   -3.9180 H         1 UNK         0.0000 
     98 H98        -1.9271    4.0393   -3.5733 H         1 UNK         0.0000 
     99 H99        -3.0708    4.5547   -1.4149 H         1 UNK         0.0000 
@<TRIPOS>BOND
     1    1   19 nc   
     2    1   28 nc   
     3    1   30 nc   
     4    1   68 nc   
     5    1   77 nc   
     6    1   79 nc   
     7    2   34 1    
     8    2    3 ar   
     9    2   35 1    
    10    3    7 ar   
    11    3    4 ar   
    12    4    5 1    
    13    4    6 1    
    14    7    8 1    
    15    7   36 1    
    16    8    9 1    
    17    8   37 1    
    18    8   38 1    
    19    9   39 1    
    20    9   10 1    
    21    9   40 1    
    22   10   11 1    
    23   10   41 1    
    24   10   42 1    
    25   11   12 1    
    26   11   23 1    
    27   11   13 1    
    28   13   15 am   BACKBONE|DICT|INTERRES
    29   13   14 2    
    30   15   16 1    
    31   15   43 1    
    32   16   17 1    
    33   16   18 1    
    34   16   21 1    
    35   18   19 1    
    36   18   20 2    
    37   21   45 1    
    38   21   22 1    
    39   21   44 1    
    40   22   46 1    
    41   23   24 am   BACKBONE|DICT|INTERRES
    42   23   47 1    
    43   24   26 1    
    44   24   25 2    
    45   26   27 ar   
    46   26   33 ar   
    47   27   29 ar   
    48   27   28 1    
    49   29   30 1    
    50   29   31 ar   
    51   31   48 1    
    52   31   32 ar   
    53   32   33 ar   
    54   32   49 1    
    55   33   50 1    
    56   51   84 1    
    57   51   83 1    
    58   51   52 ar   
    59   52   53 ar   
    60   52   56 ar   
    61   53   54 1    
    62   53   55 1    
    63   56   57 1    
    64   56   85 1    
    65   57   87 1    
    66   57   58 1    
    67   57   86 1    
    68   58   89 1    
    69   58   59 1    
    70   58   88 1    
    71   59   91 1    
    72   59   60 1    
    73   59   90 1    
    74   60   61 1    
    75   60   62 1    
    76   60   72 1    
    77   62   63 2    
    78   62   64 am   BACKBONE|DICT|INTERRES
    79   64   65 1    
    80   64   92 1    
    81   65   66 1    
    82   65   70 1    
    83   65   67 1    
    84   67   68 1    
    85   67   69 2    
    86   70   94 1    
    87   70   71 1    
    88   70   93 1    
    89   71   95 1    
    90   72   73 am   BACKBONE|DICT|INTERRES
    91   72   96 1    
    92   73   74 2    
    93   73   75 1    
    94   75   76 ar   
    95   75   82 ar   
    96   76   77 1    
    97   76   78 ar   
    98   78   79 1    
    99   78   80 ar   
   100   80   81 ar   
   101   80   97 1    
   102   81   82 ar   
   103   81   98 1    
   104   82   99 1    
@<TRIPOS>SUBSTRUCTURE
     1 UNK         1 GROUP             0       ****    0 ROOT    
