@<TRIPOS>MOLECULE
260_c1
106   111    1
SMALL
USER_CHARGES


@<TRIPOS>ATOM
      1 Fe1         0.1579   -0.2249    0.0854 Fe        1 UNK         0.0000 
      2 O2         -0.6084    1.4957   -1.0360 O.co2     1 UNK         0.0000 
      3 C3          0.1718    1.9463   -1.8717 C.2       1 UNK         0.0000 
      4 C4         -0.2180    3.0873   -2.8011 C.3       1 UNK         0.0000 
      5 C5         -1.5591    3.7405   -2.3594 C.3       1 UNK         0.0000 
      6 H6         -2.2646    2.9174   -2.2704 H         1 UNK         0.0000 
      7 C7         -2.1782    4.6481   -3.4158 C.3       1 UNK         0.0000 
      8 O8         -1.6062    4.3342   -1.0527 O.3       1 UNK         0.0000 
      9 C9         -0.7740    5.3077   -0.5945 C.2       1 UNK         0.0000 
     10 O10         0.1686    5.7655   -1.2469 O.2       1 UNK         0.0000 
     11 C11        -1.1548    5.7702    0.8342 C.3       1 UNK         0.0000 
     12 H12        -2.2457    5.8245    0.8626 H         1 UNK         0.0000 
     13 N13        -0.5807    7.1204    1.0166 N.am      1 UNK         0.0000 
     14 C14        -1.2803    8.2332    1.2774 C.2       1 UNK         0.0000 
     15 O15        -2.5020    8.2510    1.3614 O.2       1 UNK         0.0000 
     16 C16        -0.4879    9.5184    1.4823 C.3       1 UNK         0.0000 
     17 C17        -0.6903    4.8297    1.9999 C.3       1 UNK         0.0000 
     18 C18        -1.1344    3.3532    1.8543 C.3       1 UNK         0.0000 
     19 C19        -0.7416    2.3076    2.9577 C.3       1 UNK         0.0000 
     20 N20        -0.7475    0.8831    2.5036 N.am      1 UNK         0.0000 
     21 O21        -1.4409    0.6765    1.3883 O.co2     1 UNK         0.0000 
     22 C22         0.1364   -0.0562    2.9218 C.2       1 UNK         0.0000 
     23 O23         0.5474   -0.8614    2.0807 O.co2     1 UNK         0.0000 
     24 C24         0.6134   -0.1544    4.3646 C.3       1 UNK         0.0000 
     25 C25        -0.0812   -1.3273    5.1124 C.3       1 UNK         0.0000 
     26 H26        -1.1458   -1.0914    5.1171 H         1 UNK         0.0000 
     27 C27         0.3365   -1.3790    6.5869 C.3       1 UNK         0.0000 
     28 O28        -0.0464   -2.6231    4.4847 O.3       1 UNK         0.0000 
     29 C29         1.0711   -3.4051    4.3529 C.2       1 UNK         0.0000 
     30 O30         2.2051   -3.0635    4.6948 O.2       1 UNK         0.0000 
     31 C31         0.7649   -4.7885    3.7443 C.3       1 UNK         0.0000 
     32 H32        -0.2607   -4.7970    3.3735 H         1 UNK         0.0000 
     33 N33         0.9279   -5.7612    4.8425 N.am      1 UNK         0.0000 
     34 C34         0.0043   -6.6557    5.2227 C.2       1 UNK         0.0000 
     35 O35        -1.1198   -6.7049    4.7360 O.2       1 UNK         0.0000 
     36 C36         0.3987   -7.6478    6.3084 C.3       1 UNK         0.0000 
     37 C37         1.6920   -5.1813    2.5618 C.3       1 UNK         0.0000 
     38 C38         1.6689   -4.2235    1.3614 C.3       1 UNK         0.0000 
     39 C39         0.3521   -4.2014    0.5163 C.3       1 UNK         0.0000 
     40 N40         0.1470   -2.9819   -0.3059 N.am      1 UNK         0.0000 
     41 O41         1.1756   -2.1382   -0.3416 O.co2     1 UNK         0.0000 
     42 C42        -1.0818   -2.6030   -0.7442 C.2       1 UNK         0.0000 
     43 O43        -1.3112   -1.3931   -0.8385 O.co2     1 UNK         0.0000 
     44 C44        -2.1248   -3.6139   -1.2093 C.3       1 UNK         0.0000 
     45 C45        -2.7990   -3.1892   -2.5460 C.3       1 UNK         0.0000 
     46 H46        -3.4911   -2.3946   -2.2754 H         1 UNK         0.0000 
     47 C47        -3.6905   -4.3149   -3.1021 C.3       1 UNK         0.0000 
     48 O48        -1.9435   -2.5252   -3.5114 O.3       1 UNK         0.0000 
     49 C49        -1.1861   -3.1464   -4.4705 C.2       1 UNK         0.0000 
     50 O50        -1.1854   -4.3660   -4.6496 O.2       1 UNK         0.0000 
     51 C51        -0.4833   -2.1233   -5.4106 C.3       1 UNK         0.0000 
     52 H52        -1.2345   -1.3649   -5.6364 H         1 UNK         0.0000 
     53 N53        -0.1852   -2.7177   -6.7399 N.am      1 UNK         0.0000 
     54 C54         0.7312   -3.6654   -7.0149 C.2       1 UNK         0.0000 
     55 O55         1.5022   -4.1215   -6.1822 O.2       1 UNK         0.0000 
     56 C56         0.8041   -4.1553   -8.4538 C.3       1 UNK         0.0000 
     57 C57         0.7601   -1.3618   -4.8313 C.3       1 UNK         0.0000 
     58 C58         0.5203   -0.5268   -3.5556 C.3       1 UNK         0.0000 
     59 C59         1.5982    0.5593   -3.2304 C.3       1 UNK         0.0000 
     60 N60         1.3424    1.2845   -1.9589 N.am      1 UNK         0.0000 
     61 O61         1.7746    0.6070   -0.9008 O.co2     1 UNK         0.0000 
     62 H62        -0.3098    2.6853   -3.8126 H         1 UNK         0.0000 
     63 H63         0.5966    3.8092   -2.8432 H         1 UNK         0.0000 
     64 H64        -3.1791    4.9513   -3.1075 H         1 UNK         0.0000 
     65 H65        -2.2787    4.1207   -4.3667 H         1 UNK         0.0000 
     66 H66        -1.5790    5.5433   -3.5773 H         1 UNK         0.0000 
     67 H67         0.4220    7.1797    0.9338 H         1 UNK         0.0000 
     68 H68        -0.7725   10.2490    0.7251 H         1 UNK         0.0000 
     69 H69        -0.7169    9.9333    2.4641 H         1 UNK         0.0000 
     70 H70         0.5882    9.3576    1.4203 H         1 UNK         0.0000 
     71 H71         0.3955    4.8765    2.0870 H         1 UNK         0.0000 
     72 H72        -1.0710    5.2459    2.9342 H         1 UNK         0.0000 
     73 H73        -0.7148    3.0070    0.9167 H         1 UNK         0.0000 
     74 H74        -2.2208    3.3332    1.7401 H         1 UNK         0.0000 
     75 H75        -1.3994    2.4364    3.8216 H         1 UNK         0.0000 
     76 H76         0.2559    2.5617    3.3248 H         1 UNK         0.0000 
     77 H77         1.6931   -0.3080    4.3325 H         1 UNK         0.0000 
     78 H78         0.4592    0.7880    4.8928 H         1 UNK         0.0000 
     79 H79         0.1345   -0.4242    7.0739 H         1 UNK         0.0000 
     80 H80         1.4024   -1.5837    6.6877 H         1 UNK         0.0000 
     81 H81        -0.2155   -2.1551    7.1169 H         1 UNK         0.0000 
     82 H82         1.8521   -5.8031    5.2434 H         1 UNK         0.0000 
     83 H83         1.4362   -7.5352    6.6232 H         1 UNK         0.0000 
     84 H84        -0.2441   -7.5103    7.1777 H         1 UNK         0.0000 
     85 H85         0.2605   -8.6643    5.9391 H         1 UNK         0.0000 
     86 H86         1.4480   -6.1843    2.2165 H         1 UNK         0.0000 
     87 H87         2.7208   -5.2571    2.9195 H         1 UNK         0.0000 
     88 H88         2.4798   -4.4813    0.6844 H         1 UNK         0.0000 
     89 H89         1.9183   -3.2305    1.7196 H         1 UNK         0.0000 
     90 H90         0.3211   -5.0921   -0.1148 H         1 UNK         0.0000 
     91 H91        -0.5075   -4.3322    1.1825 H         1 UNK         0.0000 
     92 H92        -1.6628   -4.5905   -1.3242 H         1 UNK         0.0000 
     93 H93        -2.8881   -3.7259   -0.4336 H         1 UNK         0.0000 
     94 H94        -4.4843   -4.5634   -2.3965 H         1 UNK         0.0000 
     95 H95        -3.1241   -5.2321   -3.2703 H         1 UNK         0.0000 
     96 H96        -4.1554   -4.0309   -4.0445 H         1 UNK         0.0000 
     97 H97        -0.7670   -2.3982   -7.4962 H         1 UNK         0.0000 
     98 H98         0.5436   -5.2132   -8.4880 H         1 UNK         0.0000 
     99 H99         1.8248   -4.0428   -8.8187 H         1 UNK         0.0000 
    100 H100        0.1346   -3.6074   -9.1165 H         1 UNK         0.0000 
    101 H101        1.5729   -2.0648   -4.6480 H         1 UNK         0.0000 
    102 H102        1.1390   -0.7056   -5.6155 H         1 UNK         0.0000 
    103 H103        0.4701   -1.2354   -2.7359 H         1 UNK         0.0000 
    104 H104       -0.4601   -0.0634   -3.6531 H         1 UNK         0.0000 
    105 H105        2.5782    0.0718   -3.2033 H         1 UNK         0.0000 
    106 H106        1.6834    1.2517   -4.0711 H         1 UNK         0.0000 
@<TRIPOS>BOND
     1    1    2 nc   
     2    1   21 nc   
     3    1   23 nc   
     4    1   41 nc   
     5    1   43 nc   
     6    1   61 nc   
     7    2    3 2    
     8    3    4 1    
     9    3   60 am   BACKBONE|DICT|INTERRES
    10    4    5 1    
    11    4   62 1    
    12    4   63 1    
    13    5    6 1    
    14    5    8 1    
    15    5    7 1    
    16    7   64 1    
    17    7   65 1    
    18    7   66 1    
    19    8    9 1    
    20    9   11 1    
    21    9   10 2    
    22   11   12 1    
    23   11   13 1    
    24   11   17 1    
    25   13   14 am   BACKBONE|DICT|INTERRES
    26   13   67 1    
    27   14   15 2    
    28   14   16 1    
    29   16   69 1    
    30   16   68 1    
    31   16   70 1    
    32   17   71 1    
    33   17   72 1    
    34   17   18 1    
    35   18   19 1    
    36   18   73 1    
    37   18   74 1    
    38   19   76 1    
    39   19   75 1    
    40   19   20 1    
    41   20   22 am   BACKBONE|DICT|INTERRES
    42   20   21 1    
    43   22   23 2    
    44   22   24 1    
    45   24   78 1    
    46   24   25 1    
    47   24   77 1    
    48   25   26 1    
    49   25   27 1    
    50   25   28 1    
    51   27   80 1    
    52   27   79 1    
    53   27   81 1    
    54   28   29 1    
    55   29   30 2    
    56   29   31 1    
    57   31   32 1    
    58   31   33 1    
    59   31   37 1    
    60   33   82 1    
    61   33   34 am   BACKBONE|DICT|INTERRES
    62   34   36 1    
    63   34   35 2    
    64   36   83 1    
    65   36   84 1    
    66   36   85 1    
    67   37   87 1    
    68   37   38 1    
    69   37   86 1    
    70   38   89 1    
    71   38   39 1    
    72   38   88 1    
    73   39   91 1    
    74   39   40 1    
    75   39   90 1    
    76   40   41 1    
    77   40   42 am   BACKBONE|DICT|INTERRES
    78   42   43 2    
    79   42   44 1    
    80   44   93 1    
    81   44   45 1    
    82   44   92 1    
    83   45   46 1    
    84   45   47 1    
    85   45   48 1    
    86   47   94 1    
    87   47   95 1    
    88   47   96 1    
    89   48   49 1    
    90   49   50 2    
    91   49   51 1    
    92   51   52 1    
    93   51   57 1    
    94   51   53 1    
    95   53   54 am   BACKBONE|DICT|INTERRES
    96   53   97 1    
    97   54   55 2    
    98   54   56 1    
    99   56   98 1    
   100   56   99 1    
   101   56  100 1    
   102   57  101 1    
   103   57   58 1    
   104   57  102 1    
   105   58   59 1    
   106   58  103 1    
   107   58  104 1    
   108   59  105 1    
   109   59   60 1    
   110   59  106 1    
   111   60   61 1    
@<TRIPOS>SUBSTRUCTURE
     1 UNK         1 GROUP             0       ****    0 ROOT    
