@<TRIPOS>MOLECULE
185_A_r_c1
51   57    1
SMALL
USER_CHARGES


@<TRIPOS>ATOM
      1 C1          6.0280   -0.2330   -2.7104 C.ar      1 UNK         0.0000 
      2 C2          6.8545    0.1992   -3.7504 C.ar      1 UNK         0.0000 
      3 C3          7.6724   -0.7422   -4.3827 C.ar      1 UNK         0.0000 
      4 C4          7.4450   -2.0983   -4.1303 C.ar      1 UNK         0.0000 
      5 O5          8.4021   -2.8943   -4.1677 O.co2     1 UNK         0.0000 
      6 C6          6.3083   -2.5146   -3.4221 C.ar      1 UNK         0.0000 
      7 O7          6.0004   -3.7630   -3.3008 O.co2     1 UNK         0.0000 
      8 C8          6.0281   -1.6036   -2.3914 C.ar      1 UNK         0.0000 
      9 C9          6.6101   -1.9518   -1.0369 C.2       1 UNK         0.0000 
     10 O10         6.6321   -1.1571   -0.1014 O.2       1 UNK         0.0000 
     11 N11         7.2017   -3.1822   -0.9206 N.am      1 UNK         0.0000 
     12 C12         6.5016   -3.9849    0.1301 C.3       1 UNK         0.0000 
     13 H13         6.9187   -4.9760    0.0212 H         1 UNK         0.0000 
     14 C14         6.9140   -3.6323    1.5876 C.3       1 UNK         0.0000 
     15 O15         6.5379   -4.6665    2.4823 O.3       1 UNK         0.0000 
     16 C16         4.9392   -4.0927   -0.0426 C.3       1 UNK         0.0000 
     17 C17         4.3380   -5.5006   -0.0273 C.3       1 UNK         0.0000 
     18 C18         4.7353   -6.3479   -1.2490 C.3       1 UNK         0.0000 
     19 C19         6.0614   -7.0886   -1.0640 C.3       1 UNK         0.0000 
     20 N20         7.2700   -6.5682   -1.7549 N.am      1 UNK         0.0000 
     21 C21         8.3910   -7.2105   -1.2451 C.2       1 UNK         0.0000 
     22 O22         8.4987   -7.7471   -0.1493 O.2       1 UNK         0.0000 
     23 C23         9.4694   -7.2666   -2.2904 C.ar      1 UNK         0.0000 
     24 C24         9.6035   -6.1105   -3.0505 C.ar      1 UNK         0.0000 
     25 O25         9.5118   -4.9792   -2.4526 O.co2     1 UNK         0.0000 
     26 C26         9.1748   -6.2733   -4.3671 C.ar      1 UNK         0.0000 
     27 O27         8.1369   -5.4570   -4.7131 O.3       1 UNK         0.0000 
     28 C28         9.3894   -7.4771   -5.0390 C.ar      1 UNK         0.0000 
     29 C29         9.7950   -8.5866   -4.2834 C.ar      1 UNK         0.0000 
     30 C30         9.7534   -8.5081   -2.8872 C.ar      1 UNK         0.0000 
     31 H31         5.6561    0.5004   -2.0033 H         1 UNK         0.0000 
     32 H32         7.0275    1.2548   -3.8845 H         1 UNK         0.0000 
     33 H33         8.5551   -0.4135   -4.9182 H         1 UNK         0.0000 
     34 H34         8.1086   -2.9213   -0.5283 H         1 UNK         0.0000 
     35 H35         6.4480   -2.6990    1.9166 H         1 UNK         0.0000 
     36 H36         7.9916   -3.4772    1.6478 H         1 UNK         0.0000 
     37 H37         7.2706   -5.2718    2.6395 H         1 UNK         0.0000 
     38 H38         4.5949   -3.6240   -0.9659 H         1 UNK         0.0000 
     39 H39         4.4519   -3.5099    0.7443 H         1 UNK         0.0000 
     40 H40         4.5648   -6.0071    0.9152 H         1 UNK         0.0000 
     41 H41         3.2553   -5.3948   -0.0283 H         1 UNK         0.0000 
     42 H42         4.7127   -5.7699   -2.1690 H         1 UNK         0.0000 
     43 H43         3.9640   -7.1107   -1.3817 H         1 UNK         0.0000 
     44 H44         5.9032   -8.1220   -1.4019 H         1 UNK         0.0000 
     45 H45         6.2007   -7.2133    0.0183 H         1 UNK         0.0000 
     46 H46         7.2738   -6.8843   -2.7222 H         1 UNK         0.0000 
     47 H47         9.1008   -7.6080   -6.0753 H         1 UNK         0.0000 
     48 H48         9.9334   -9.5443   -4.7643 H         1 UNK         0.0000 
     49 H49         9.7550   -9.4226   -2.3099 H         1 UNK         0.0000 
     50 Fe50        7.7567   -4.4106   -2.9069 Fe        1 UNK         0.0000 
     51 H51         8.1886   -5.2127   -5.6618 H         1 UNK         0.0000 
@<TRIPOS>BOND
     1    1    2 ar   
     2    1    8 ar   
     3    1   31 1    
     4    2    3 ar   
     5    2   32 1    
     6    3    4 ar   
     7    3   33 1    
     8    4    5 1    
     9    4    6 ar   
    10    5   50 nc   
    11    6    7 1    
    12    6    8 ar   
    13    7   50 nc   
    14    8    9 1    
    15    9   10 2    
    16    9   11 am   BACKBONE|DICT|INTERRES
    17   11   12 1    
    18   11   34 1    
    19   11   50 nc   
    20   12   13 1    
    21   12   14 1    
    22   12   16 1    
    23   14   15 1    
    24   14   35 1    
    25   14   36 1    
    26   15   37 1    
    27   16   17 1    
    28   16   38 1    
    29   16   39 1    
    30   17   18 1    
    31   17   40 1    
    32   17   41 1    
    33   18   19 1    
    34   18   42 1    
    35   18   43 1    
    36   19   20 1    
    37   19   44 1    
    38   19   45 1    
    39   20   21 am   BACKBONE|DICT|INTERRES
    40   20   46 1    
    41   20   50 nc   
    42   21   22 2    
    43   21   23 1    
    44   23   24 ar   
    45   23   30 ar   
    46   24   25 1    
    47   24   26 ar   
    48   25   50 nc   
    49   26   27 1    
    50   26   28 ar   
    51   27   51 1    
    52   27   50 nc   
    53   28   29 ar   
    54   28   47 1    
    55   29   30 ar   
    56   29   48 1    
    57   30   49 1    
@<TRIPOS>SUBSTRUCTURE
     1 UNK         1 GROUP             0       ****    0 ROOT    
