@<TRIPOS>MOLECULE
115_c1
67   72    1
SMALL
USER_CHARGES


@<TRIPOS>ATOM
      1 O1          0.3080    0.3828   -9.5669 O.co2     1 UNK         0.0000 
      2 C2          0.4943   -0.6459  -10.5069 C.3       1 UNK         0.0000 
      3 C3          1.9627   -1.1294  -10.6068 C.3       1 UNK         0.0000 
      4 C4          2.6346   -2.0404   -9.5303 C.2       1 UNK         0.0000 
      5 C5          3.6397   -3.0210  -10.1089 C.3       1 UNK         0.0000 
      6 C6          2.4755   -2.0863   -8.1749 C.2       1 UNK         0.0000 
      7 C7          1.5107   -1.3380   -7.4391 C.2       1 UNK         0.0000 
      8 O8          0.3369   -1.7251   -7.4329 O.co2     1 UNK         0.0000 
      9 N9          1.7504   -0.0734   -6.9941 N.am      1 UNK         0.0000 
     10 O10         0.7609    0.6429   -6.4945 O.co2     1 UNK         0.0000 
     11 C11         2.9701    0.7301   -7.3067 C.3       1 UNK         0.0000 
     12 C12         2.8993    2.2526   -6.9032 C.3       1 UNK         0.0000 
     13 C13         1.8510    3.1205   -7.6918 C.3       1 UNK         0.0000 
     14 C14         1.3349    4.4714   -7.0970 C.3       1 UNK         0.0000 
     15 H15         2.0604    5.2302   -7.3908 H         1 UNK         0.0000 
     16 N16         0.0385    4.8908   -7.6828 N.am      1 UNK         0.0000 
     17 C17        -1.1326    4.9193   -7.0345 C.2       1 UNK         0.0000 
     18 O18        -2.1304    5.2706   -7.6592 O.2       1 UNK         0.0000 
     19 C19         1.4271    4.5894   -5.5337 C.2       1 UNK         0.0000 
     20 O20         2.4571    4.6169   -4.8618 O.2       1 UNK         0.0000 
     21 N21         0.2816    4.7917   -4.8777 N.am      1 UNK         0.0000 
     22 C22        -1.0645    4.7044   -5.4801 C.3       1 UNK         0.0000 
     23 H23        -1.5907    5.5987   -5.1582 H         1 UNK         0.0000 
     24 C24        -1.8586    3.5047   -4.8845 C.3       1 UNK         0.0000 
     25 C25        -3.3628    3.2409   -5.2308 C.3       1 UNK         0.0000 
     26 C26        -3.6353    2.4848   -6.5529 C.3       1 UNK         0.0000 
     27 N27        -2.6459    1.4127   -6.7602 N.am      1 UNK         0.0000 
     28 O28        -1.6988    1.7274   -7.6400 O.co2     1 UNK         0.0000 
     29 C29        -2.5721    0.3057   -5.9662 C.2       1 UNK         0.0000 
     30 O30        -1.5714   -0.3999   -6.0104 O.co2     1 UNK         0.0000 
     31 C31        -3.7052   -0.2850   -5.3497 C.2       1 UNK         0.0000 
     32 C32        -4.4441   -1.2422   -5.9721 C.2       1 UNK         0.0000 
     33 C33        -5.4789   -1.9303   -5.1100 C.3       1 UNK         0.0000 
     34 C34        -4.3634   -1.7253   -7.4504 C.3       1 UNK         0.0000 
     35 C35        -3.0270   -2.1437   -8.1522 C.3       1 UNK         0.0000 
     36 O36        -2.3051   -1.0676   -8.7021 O.co2     1 UNK         0.0000 
     37 H37         0.1300   -0.4248  -11.5129 H         1 UNK         0.0000 
     38 H38        -0.1093   -1.5269  -10.2933 H         1 UNK         0.0000 
     39 H39         2.5903   -0.2478  -10.6979 H         1 UNK         0.0000 
     40 H40         2.0444   -1.6198  -11.5689 H         1 UNK         0.0000 
     41 H41         4.6242   -2.8761   -9.6718 H         1 UNK         0.0000 
     42 H42         3.7280   -2.9341  -11.1884 H         1 UNK         0.0000 
     43 H43         3.3065   -4.0318   -9.8924 H         1 UNK         0.0000 
     44 H44         3.0585   -2.7413   -7.5543 H         1 UNK         0.0000 
     45 H45         3.1452    0.6604   -8.3885 H         1 UNK         0.0000 
     46 H46         3.8363    0.2807   -6.8019 H         1 UNK         0.0000 
     47 H47         2.6605    2.2532   -5.8405 H         1 UNK         0.0000 
     48 H48         3.8826    2.7189   -6.9731 H         1 UNK         0.0000 
     49 H49         0.9479    2.5485   -7.9006 H         1 UNK         0.0000 
     50 H50         2.2172    3.3101   -8.6986 H         1 UNK         0.0000 
     51 H51        -0.0817    4.9477   -8.6806 H         1 UNK         0.0000 
     52 H52         0.3973    4.7628   -3.8820 H         1 UNK         0.0000 
     53 H53        -1.8174    3.6337   -3.8059 H         1 UNK         0.0000 
     54 H54        -1.2420    2.6127   -5.0374 H         1 UNK         0.0000 
     55 H55        -3.9791    4.1368   -5.1600 H         1 UNK         0.0000 
     56 H56        -3.7376    2.5810   -4.4462 H         1 UNK         0.0000 
     57 H57        -3.5986    3.2025   -7.3849 H         1 UNK         0.0000 
     58 H58        -4.6489    2.0732   -6.5914 H         1 UNK         0.0000 
     59 H59        -3.8532    0.0367   -4.3328 H         1 UNK         0.0000 
     60 H60        -4.9838   -2.4348   -4.2853 H         1 UNK         0.0000 
     61 H61        -6.0345   -2.6685   -5.6732 H         1 UNK         0.0000 
     62 H62        -6.1676   -1.1943   -4.7154 H         1 UNK         0.0000 
     63 H63        -4.8010   -0.9140   -8.0185 H         1 UNK         0.0000 
     64 H64        -5.0611   -2.5393   -7.5852 H         1 UNK         0.0000 
     65 H65        -3.2914   -2.8688   -8.9158 H         1 UNK         0.0000 
     66 H66        -2.4362   -2.7536   -7.4725 H         1 UNK         0.0000 
     67 Fe67       -0.6956   -0.0516   -7.7233 Fe        1 UNK         0.0000 
@<TRIPOS>BOND
     1    1    2 1    
     2    1   67 nc   
     3    2    3 1    
     4    2   37 1    
     5    2   38 1    
     6    3    4 1    
     7    3   39 1    
     8    3   40 1    
     9    4    5 1    
    10    4    6 2    
    11    5   41 1    
    12    5   42 1    
    13    5   43 1    
    14    6    7 1    
    15    6   44 1    
    16    7    8 2    
    17    7    9 am   BACKBONE|DICT|INTERRES
    18    8   67 nc   
    19    9   10 1    
    20    9   11 1    
    21   10   67 nc   
    22   11   12 1    
    23   11   45 1    
    24   11   46 1    
    25   12   13 1    
    26   12   47 1    
    27   12   48 1    
    28   13   49 1    
    29   13   50 1    
    30   13   14 1    
    31   14   16 1    
    32   14   19 1    
    33   14   15 1    
    34   16   17 am   BACKBONE|DICT|INTERRES
    35   16   51 1    
    36   17   18 2    
    37   17   22 1    
    38   19   20 2    
    39   19   21 am   BACKBONE|DICT|INTERRES
    40   21   22 1    
    41   21   52 1    
    42   22   23 1    
    43   22   24 1    
    44   24   25 1    
    45   24   53 1    
    46   24   54 1    
    47   25   26 1    
    48   25   55 1    
    49   25   56 1    
    50   26   27 1    
    51   26   57 1    
    52   26   58 1    
    53   27   28 1    
    54   27   29 am   BACKBONE|DICT|INTERRES
    55   28   67 nc   
    56   29   30 2    
    57   29   31 1    
    58   30   67 nc   
    59   31   32 2    
    60   31   59 1    
    61   32   33 1    
    62   32   34 1    
    63   33   60 1    
    64   33   61 1    
    65   33   62 1    
    66   34   35 1    
    67   34   63 1    
    68   34   64 1    
    69   35   36 1    
    70   35   65 1    
    71   35   66 1    
    72   36   67 nc   
@<TRIPOS>SUBSTRUCTURE
     1 UNK         1 GROUP             0       ****    0 ROOT    
