@<TRIPOS>MOLECULE
053_c1
81   90    1
SMALL
USER_CHARGES


@<TRIPOS>ATOM
      1 C1         -2.2125    3.2308    1.7162 C.ar      1 UNK         0.0000 
      2 C2         -2.5052    4.5678    1.9872 C.ar      1 UNK         0.0000 
      3 C3         -1.7339    5.5897    1.4699 C.ar      1 UNK         0.0000 
      4 C4         -0.6770    5.2999    0.6077 C.ar      1 UNK         0.0000 
      5 O5         -0.0294    6.3641    0.0203 O.3       1 UNK         0.0000 
      6 C6         -0.3291    3.9559    0.3373 C.ar      1 UNK         0.0000 
      7 O7          0.6870    3.7571   -0.4385 O.co2     1 UNK         0.0000 
      8 C8         -1.1181    2.8907    0.9127 C.ar      1 UNK         0.0000 
      9 C9         -0.8068    1.4393    0.6963 C.2       1 UNK         0.0000 
     10 S10        -1.3118   -0.1091    1.5559 S.3       1 UNK         0.0000 
     11 C11         0.0110   -1.0541    0.6351 C.3       1 UNK         0.0000 
     12 N12         0.0573    1.1525   -0.1526 N.pl3     1 UNK         0.0000 
     13 C13         0.9479    0.1514    0.4343 C.3       1 UNK         0.0000 
     14 H14         1.3187    0.4810    1.4279 H         1 UNK         0.0000 
     15 C15         2.2954    0.2498   -0.3648 C.2       1 UNK         0.0000 
     16 O16         2.4317    1.2605   -1.1000 O.co2     1 UNK         0.0000 
     17 N17         3.3778   -0.5266   -0.1657 N.am      1 UNK         0.0000 
     18 O18         3.2588   -1.5992    0.7224 O.3       1 UNK         0.0000 
     19 C19         4.6784   -0.2983   -0.8274 C.3       1 UNK         0.0000 
     20 C20         5.0782   -1.4086   -1.7945 C.3       1 UNK         0.0000 
     21 C21         6.2733   -1.0059   -2.6491 C.ar      1 UNK         0.0000 
     22 N22         6.8134   -1.8612   -3.5869 N.pl3     1 UNK         0.0000 
     23 H23         6.4736   -2.8018   -3.7611 H         1 UNK         0.0000 
     24 C24         7.8862   -1.2670   -4.2368 C.ar      1 UNK         0.0000 
     25 N25         8.0279   -0.0026   -3.7014 N.pl3     1 UNK         0.0000 
     26 H26         8.7396    0.6860   -3.9681 H         1 UNK         0.0000 
     27 C27         7.0463    0.1631   -2.7319 C.ar      1 UNK         0.0000 
     28 H28        -2.8723    2.4767    2.1129 H         1 UNK         0.0000 
     29 H29        -3.3322    4.8179    2.6332 H         1 UNK         0.0000 
     30 H30        -1.9494    6.6317    1.7075 H         1 UNK         0.0000 
     31 H31        -0.1202    7.1715    0.5295 H         1 UNK         0.0000 
     32 H32        -0.4210   -1.4452   -0.2939 H         1 UNK         0.0000 
     33 H33         0.4266   -1.8901    1.2073 H         1 UNK         0.0000 
     34 H34         3.6389   -1.2713    1.5507 H         1 UNK         0.0000 
     35 H35         5.4403   -0.1100   -0.0730 H         1 UNK         0.0000 
     36 H36         4.6595    0.6244   -1.4088 H         1 UNK         0.0000 
     37 H37         4.2232   -1.6480   -2.4237 H         1 UNK         0.0000 
     38 H38         5.2729   -2.3092   -1.2174 H         1 UNK         0.0000 
     39 H39         8.5076   -1.7112   -5.0124 H         1 UNK         0.0000 
     40 H40         6.9956    1.0992   -2.1875 H         1 UNK         0.0000 
     41 C41        -6.0299    4.3923   -3.6467 C.ar      1 UNK         0.0000 
     42 H42        -3.7043    6.8324   -3.2680 H         1 UNK         0.0000 
     43 O43        -1.1112    6.3244   -4.0152 O.3       1 UNK         0.0000 
     44 H44        -3.2262    4.6598   -2.2016 H         1 UNK         0.0000 
     45 N45        -7.3589    4.6093   -3.9967 N.pl3     1 UNK         0.0000 
     46 H46        -8.1242    3.9339   -3.9094 H         1 UNK         0.0000 
     47 H47        -5.7309    3.4328   -3.2404 H         1 UNK         0.0000 
     48 H48         1.3116    5.2739   -2.8411 H         1 UNK         0.0000 
     49 C49        -5.2956    5.5466   -3.9452 C.ar      1 UNK         0.0000 
     50 C50        -3.8373    5.9223   -3.8498 C.3       1 UNK         0.0000 
     51 H51        -1.0443    6.9904   -3.3107 H         1 UNK         0.0000 
     52 C52        -7.4684    5.8906   -4.5032 C.ar      1 UNK         0.0000 
     53 C53        -2.9555    4.8320   -3.2458 C.3       1 UNK         0.0000 
     54 N54        -1.5112    5.1298   -3.3697 N.am      1 UNK         0.0000 
     55 N55        -6.2012    6.4463   -4.4627 N.pl3     1 UNK         0.0000 
     56 C56         0.9634    4.4635   -3.4965 C.3       1 UNK         0.0000 
     57 C57        -0.5508    4.2187   -3.1117 C.2       1 UNK         0.0000 
     58 H58        -8.3714    6.3666   -4.8777 H         1 UNK         0.0000 
     59 H59        -5.9562    7.3791   -4.7858 H         1 UNK         0.0000 
     60 N60         1.6624    3.1982   -3.1926 N.pl3     1 UNK         0.0000 
     61 O61        -0.8479    3.1533   -2.5124 O.co2     1 UNK         0.0000 
     62 O62         0.6829    0.5888   -2.9500 O.co2     1 UNK         0.0000 
     63 H63        -3.4828    6.1379   -4.8559 H         1 UNK         0.0000 
     64 H64        -3.1714    3.8915   -3.7571 H         1 UNK         0.0000 
     65 H65         1.1849    5.8357   -5.2440 H         1 UNK         0.0000 
     66 C66         1.1323    4.7694   -5.0083 C.3       1 UNK         0.0000 
     67 C67         2.2546    2.7079   -4.2152 C.2       1 UNK         0.0000 
     68 C68         1.6518    0.2723   -3.7233 C.ar      1 UNK         0.0000 
     69 C69         2.5007    1.2436   -4.3395 C.ar      1 UNK         0.0000 
     70 O70         1.1890   -2.0711   -3.2765 O.3       1 UNK         0.0000 
     71 C71         1.8871   -1.0958   -3.9532 C.ar      1 UNK         0.0000 
     72 H72         0.3382    4.3189   -5.6121 H         1 UNK         0.0000 
     73 S73         2.5938    3.8745   -5.5452 S.3       1 UNK         0.0000 
     74 H74         1.2187   -2.9303   -3.6974 H         1 UNK         0.0000 
     75 C75         3.5176    0.7996   -5.1959 C.ar      1 UNK         0.0000 
     76 C76         2.8741   -1.4942   -4.8447 C.ar      1 UNK         0.0000 
     77 C77         3.6892   -0.5568   -5.4495 C.ar      1 UNK         0.0000 
     78 H78         4.1827    1.4923   -5.6936 H         1 UNK         0.0000 
     79 H79         2.9869   -2.5512   -5.0655 H         1 UNK         0.0000 
     80 H80         4.4320   -0.8820   -6.1564 H         1 UNK         0.0000 
     81 Fe81        0.7704    2.1779   -1.7182 Fe        1 UNK         0.0000 
@<TRIPOS>BOND
     1    1    2 ar   
     2    1    8 ar   
     3    1   28 1    
     4    2    3 ar   
     5    2   29 1    
     6    3    4 ar   
     7    3   30 1    
     8    4    5 1    
     9    4    6 ar   
    10    5   31 1    
    11    6    7 1    
    12    6    8 ar   
    13    7   81 nc   
    14    8    9 1    
    15    9   10 1    
    16    9   12 2    
    17   10   11 1    
    18   11   13 1    
    19   11   32 1    
    20   11   33 1    
    21   12   13 1    
    22   12   81 nc   
    23   13   14 1    
    24   13   15 1    
    25   15   16 2    
    26   15   17 am   BACKBONE|DICT|INTERRES
    27   16   81 nc   
    28   17   18 1    
    29   17   19 1    
    30   18   34 1    
    31   19   20 1    
    32   19   35 1    
    33   19   36 1    
    34   20   21 1    
    35   20   37 1    
    36   20   38 1    
    37   21   22 ar   
    38   21   27 ar   
    39   22   23 1    
    40   22   24 ar   
    41   24   25 ar   
    42   24   39 1    
    43   25   26 1    
    44   25   27 ar   
    45   27   40 1    
    46   41   47 1    
    47   41   45 ar   
    48   41   49 ar   
    49   42   50 1    
    50   43   51 1    
    51   43   54 1    
    52   44   53 1    
    53   45   46 1    
    54   45   52 ar   
    55   48   56 1    
    56   49   55 ar   
    57   49   50 1    
    58   50   63 1    
    59   50   53 1    
    60   52   58 1    
    61   52   55 ar   
    62   53   64 1    
    63   53   54 1    
    64   54   57 am   BACKBONE|DICT|INTERRES
    65   55   59 1    
    66   56   57 1    
    67   56   60 1    
    68   56   66 1    
    69   57   61 2    
    70   60   67 2    
    71   60   81 nc   
    72   61   81 nc   
    73   62   68 1    
    74   62   81 nc   
    75   65   66 1    
    76   66   72 1    
    77   66   73 1    
    78   67   73 1    
    79   67   69 1    
    80   68   69 ar   
    81   68   71 ar   
    82   69   75 ar   
    83   70   74 1    
    84   70   71 1    
    85   71   76 ar   
    86   75   77 ar   
    87   75   78 1    
    88   76   79 1    
    89   76   77 ar   
    90   77   80 1    
@<TRIPOS>SUBSTRUCTURE
     1 UNK         1 GROUP             0       ****    0 ROOT    
