@<TRIPOS>MOLECULE
004_c1
88   93    1
SMALL
USER_CHARGES


@<TRIPOS>ATOM
      1 Fe1         0.0000    0.0000    0.0000 Fe        1 UNK         0.0000 
      2 O2          6.5380   -1.1462   -1.3330 O.3       1 UNK         0.0000 
      3 C3          7.5742   -0.2065   -1.2292 C.3       1 UNK         0.0000 
      4 H4          8.5416   -0.7599   -1.1686 H         1 UNK         0.0000 
      5 C5          7.6018    0.6048   -2.5301 C.3       1 UNK         0.0000 
      6 C6          7.4173    0.6665    0.0574 C.3       1 UNK         0.0000 
      7 H7          7.3208   -0.0148    0.9331 H         1 UNK         0.0000 
      8 C8          8.6652    1.4919    0.3092 C.2       1 UNK         0.0000 
      9 O9          9.0370    2.4703   -0.5386 O.2       1 UNK         0.0000 
     10 O10         9.3290    1.2952    1.3150 O.3       1 UNK         0.0000 
     11 N11         6.2461    1.5458    0.0086 N.am      1 UNK         0.0000 
     12 C12         4.9559    1.0902    0.0763 C.2       1 UNK         0.0000 
     13 O13         4.7802   -0.1055    0.2191 O.2       1 UNK         0.0000 
     14 C14         3.7502    2.0168    0.0312 C.ar      1 UNK         0.0000 
     15 C15         3.9436    3.4225    0.0162 C.ar      1 UNK         0.0000 
     16 C16         2.8776    4.3145   -0.0039 C.ar      1 UNK         0.0000 
     17 C17         1.5744    3.8532   -0.0068 C.ar      1 UNK         0.0000 
     18 C18         1.3087    2.4852    0.0034 C.ar      1 UNK         0.0000 
     19 O19         0.0000    2.0800    0.0000 O.co2     1 UNK         0.0000 
     20 C20         2.3911    1.5376    0.0152 C.ar      1 UNK         0.0000 
     21 O21         2.0704    0.1998    0.0000 O.co2     1 UNK         0.0000 
     22 H22         6.7471   -1.8811   -0.6984 H         1 UNK         0.0000 
     23 H23         7.7081   -0.0855   -3.3938 H         1 UNK         0.0000 
     24 H24         6.6572    1.1760   -2.6539 H         1 UNK         0.0000 
     25 H25         8.4587    1.3034   -2.5639 H         1 UNK         0.0000 
     26 H26         6.4371    2.5507   -0.0490 H         1 UNK         0.0000 
     27 H27         4.9126    3.8860    0.0284 H         1 UNK         0.0000 
     28 H28         3.0654    5.3810   -0.0125 H         1 UNK         0.0000 
     29 H29         0.7606    4.5679   -0.0186 H         1 UNK         0.0000 
     30 O30        -1.3747    1.2804    6.4926 O.3       1 UNK         0.0000 
     31 C31        -1.3066    0.3532    7.5430 C.3       1 UNK         0.0000 
     32 H32        -1.2560    0.9179    8.5044 H         1 UNK         0.0000 
     33 C33        -2.6209   -0.4370    7.5555 C.3       1 UNK         0.0000 
     34 C34        -0.0319   -0.5429    7.4217 C.3       1 UNK         0.0000 
     35 H35         0.8572    0.1231    7.3362 H         1 UNK         0.0000 
     36 C36         0.1811   -1.3581    8.6837 C.2       1 UNK         0.0000 
     37 O37        -0.6900   -2.3183    9.0486 O.2       1 UNK         0.0000 
     38 O38         1.1764   -1.1705    9.3656 O.3       1 UNK         0.0000 
     39 N39        -0.0725   -1.4334    6.2596 N.am      1 UNK         0.0000 
     40 C40         0.0332   -0.9941    4.9654 C.2       1 UNK         0.0000 
     41 O41         0.2068    0.1962    4.7808 O.2       1 UNK         0.0000 
     42 C42        -0.0075   -1.9342    3.7682 C.ar      1 UNK         0.0000 
     43 C43        -0.0399   -3.3360    3.9821 C.ar      1 UNK         0.0000 
     44 C44        -0.0577   -4.2445    2.9312 C.ar      1 UNK         0.0000 
     45 C45        -0.0412   -3.8065    1.6213 C.ar      1 UNK         0.0000 
     46 C46        -0.0130   -2.4446    1.3269 C.ar      1 UNK         0.0000 
     47 O47         0.0000   -2.0800    0.0000 O.co2     1 UNK         0.0000 
     48 C48        -0.0023   -1.4723    2.4016 C.ar      1 UNK         0.0000 
     49 O49         0.0000   -0.1310    2.0759 O.co2     1 UNK         0.0000 
     50 H50        -0.7344    2.0090    6.7059 H         1 UNK         0.0000 
     51 H51        -3.4754    0.2681    7.6358 H         1 UNK         0.0000 
     52 H52        -2.7354   -1.0190    6.6163 H         1 UNK         0.0000 
     53 H53        -2.6828   -1.1234    8.4206 H         1 UNK         0.0000 
     54 H54        -0.1582   -2.4339    6.4605 H         1 UNK         0.0000 
     55 H55        -0.0426   -3.7855    4.9574 H         1 UNK         0.0000 
     56 H56        -0.0796   -5.3072    3.1373 H         1 UNK         0.0000 
     57 H57        -0.0522   -4.5373    0.8220 H         1 UNK         0.0000 
     58 O58         1.3321   -1.2785   -6.5093 O.3       1 UNK         0.0000 
     59 C59         0.4191   -1.1554   -7.5675 C.3       1 UNK         0.0000 
     60 H60         0.9954   -1.0968   -8.5216 H         1 UNK         0.0000 
     61 C61        -0.4096   -2.4447   -7.6229 C.3       1 UNK         0.0000 
     62 C62        -0.4394    0.1419   -7.4208 C.3       1 UNK         0.0000 
     63 H63         0.2515    1.0085   -7.3074 H         1 UNK         0.0000 
     64 C64        -1.2371    0.4114   -8.6836 C.2       1 UNK         0.0000 
     65 O65        -2.2195   -0.4210   -9.0784 O.3       1 UNK         0.0000 
     66 O66        -1.0143    1.4180   -9.3377 O.2       1 UNK         0.0000 
     67 N67        -1.3406    0.0975   -6.2673 N.am      1 UNK         0.0000 
     68 C68        -0.9111    0.1619   -4.9671 C.2       1 UNK         0.0000 
     69 O69         0.2818    0.3015   -4.7685 O.2       1 UNK         0.0000 
     70 C70        -1.8637    0.1156   -3.7791 C.ar      1 UNK         0.0000 
     71 C71        -3.2627    0.1445   -4.0098 C.ar      1 UNK         0.0000 
     72 C72        -4.1853    0.1255   -2.9728 C.ar      1 UNK         0.0000 
     73 C73        -3.7672    0.0797   -1.6581 C.ar      1 UNK         0.0000 
     74 C74        -2.4104    0.0455   -1.3403 C.ar      1 UNK         0.0000 
     75 O75        -2.0800    0.0000    0.0000 O.co2     1 UNK         0.0000 
     76 C76        -1.4167    0.0569   -2.4078 C.ar      1 UNK         0.0000 
     77 O77        -0.0726    0.0000   -2.0787 O.co2     1 UNK         0.0000 
     78 H78         2.0845   -0.6594   -6.7010 H         1 UNK         0.0000 
     79 H79         0.2704   -3.3178   -7.7189 H         1 UNK         0.0000 
     80 H80        -1.0051   -2.5664   -6.6932 H         1 UNK         0.0000 
     81 H81        -1.0880   -2.4634   -8.4964 H         1 UNK         0.0000 
     82 H82        -2.3409    0.0395   -6.4797 H         1 UNK         0.0000 
     83 H83        -3.6995    0.1946   -4.9893 H         1 UNK         0.0000 
     84 H84        -5.2451    0.1523   -3.1938 H         1 UNK         0.0000 
     85 H85        -4.5116    0.0695   -0.8714 H         1 UNK         0.0000 
     86 H86        10.0793    1.8939    1.3259 H         1 UNK         0.0000 
     87 H87         1.1622   -1.7608   10.1226 H         1 UNK         0.0000 
     88 H88        -2.6099   -0.0930   -9.8918 H         1 UNK         0.0000 
@<TRIPOS>BOND
     1    1   19 nc   
     2    1   21 nc   
     3    1   47 nc   
     4    1   49 nc   
     5    1   75 nc   
     6    1   77 nc   
     7    2    3 1    
     8    2   22 1    
     9    3    4 1    
    10    3    6 1    
    11    3    5 1    
    12    5   23 1    
    13    5   24 1    
    14    5   25 1    
    15    6    8 1    
    16    6    7 1    
    17    6   11 1    
    18    8   10 1    
    19    8    9 2    
    20   10   86 1    
    21   11   12 am   BACKBONE|DICT|INTERRES
    22   11   26 1    
    23   12   13 2    
    24   12   14 1    
    25   14   15 ar   
    26   14   20 ar   
    27   15   27 1    
    28   15   16 ar   
    29   16   17 ar   
    30   16   28 1    
    31   17   18 ar   
    32   17   29 1    
    33   18   20 ar   
    34   18   19 1    
    35   20   21 1    
    36   30   50 1    
    37   30   31 1    
    38   31   33 1    
    39   31   32 1    
    40   31   34 1    
    41   33   51 1    
    42   33   53 1    
    43   33   52 1    
    44   34   35 1    
    45   34   36 1    
    46   34   39 1    
    47   36   37 2    
    48   36   38 1    
    49   38   87 1    
    50   39   54 1    
    51   39   40 am   BACKBONE|DICT|INTERRES
    52   40   41 2    
    53   40   42 1    
    54   42   43 ar   
    55   42   48 ar   
    56   43   55 1    
    57   43   44 ar   
    58   44   56 1    
    59   44   45 ar   
    60   45   46 ar   
    61   45   57 1    
    62   46   48 ar   
    63   46   47 1    
    64   48   49 1    
    65   58   59 1    
    66   58   78 1    
    67   59   60 1    
    68   59   62 1    
    69   59   61 1    
    70   61   80 1    
    71   61   79 1    
    72   61   81 1    
    73   62   63 1    
    74   62   67 1    
    75   62   64 1    
    76   64   65 1    
    77   64   66 2    
    78   65   88 1    
    79   67   68 am   BACKBONE|DICT|INTERRES
    80   67   82 1    
    81   68   69 2    
    82   68   70 1    
    83   70   76 ar   
    84   70   71 ar   
    85   71   72 ar   
    86   71   83 1    
    87   72   73 ar   
    88   72   84 1    
    89   73   74 ar   
    90   73   85 1    
    91   74   75 1    
    92   74   76 ar   
    93   76   77 1    
@<TRIPOS>SUBSTRUCTURE
     1 UNK         1 GROUP             0       ****    0 ROOT    
