@<TRIPOS>MOLECULE
045_c1
140   144    1
SMALL
USER_CHARGES


@<TRIPOS>ATOM
      1 O1         13.9846    5.1386   -3.1614 O.co2     1 UNK         0.0000 
      2 C2         13.1903    5.8689   -3.7816 C.2       1 UNK         0.0000 
      3 C3         12.3232    5.2724   -4.8879 C.3       1 UNK         0.0000 
      4 N4         13.1058    7.1693   -3.3991 N.am      1 UNK         0.0000 
      5 O5         13.9071    7.7129   -2.4725 O.co2     1 UNK         0.0000 
      6 C6         12.0524    8.0913   -3.8938 C.3       1 UNK         0.0000 
      7 C7         11.0312    8.5495   -2.8139 C.3       1 UNK         0.0000 
      8 C8         11.5366    9.5518   -1.7323 C.3       1 UNK         0.0000 
      9 C9         12.0430   10.9331   -2.2785 C.3       1 UNK         0.0000 
     10 H10        12.7581   10.7451   -3.0909 H         1 UNK         0.0000 
     11 C11        10.8434   11.7478   -2.9058 C.2       1 UNK         0.0000 
     12 O12        10.0371   12.2239   -2.0681 O.co2     1 UNK         0.0000 
     13 O13        10.7517   11.6464   -4.1505 O.co2     1 UNK         0.0000 
     14 N14        12.7635   11.6776   -1.2126 N.am      1 UNK         0.0000 
     15 C15        13.5115   12.7885   -1.3838 C.2       1 UNK         0.0000 
     16 O16        13.7604   13.2968   -2.4756 O.2       1 UNK         0.0000 
     17 C17        14.1724   13.3694   -0.1132 C.3       1 UNK         0.0000 
     18 H18        13.4034   13.3847    0.6557 H         1 UNK         0.0000 
     19 C19        14.7337   14.8123   -0.2706 C.3       1 UNK         0.0000 
     20 O20        13.7655   15.8348   -0.2866 O.3       1 UNK         0.0000 
     21 N21        15.2426   12.4780    0.3578 N.am      1 UNK         0.0000 
     22 C22        16.3757   12.1437   -0.2783 C.2       1 UNK         0.0000 
     23 O23        16.7635   12.6523   -1.3278 O.2       1 UNK         0.0000 
     24 C24        17.2455   11.0547    0.3947 C.3       1 UNK         0.0000 
     25 H25        17.5515   11.4176    1.3814 H         1 UNK         0.0000 
     26 C26        16.4844    9.7094    0.5047 C.3       1 UNK         0.0000 
     27 C27        15.2427    9.5806    1.4277 C.3       1 UNK         0.0000 
     28 C28        14.9312    8.1069    1.8532 C.3       1 UNK         0.0000 
     29 N29        14.6844    7.1317    0.7441 N.am      1 UNK         0.0000 
     30 O30        15.7210    6.9974   -0.0981 O.co2     1 UNK         0.0000 
     31 C31        13.5145    6.4657    0.5351 C.2       1 UNK         0.0000 
     32 O32        13.4394    5.7700   -0.4985 O.co2     1 UNK         0.0000 
     33 C33        12.3163    6.4819    1.4930 C.3       1 UNK         0.0000 
     34 N34        18.4368   10.8317   -0.4298 N.am      1 UNK         0.0000 
     35 C35        19.4895   10.0938   -0.0546 C.2       1 UNK         0.0000 
     36 O36        19.6950    9.7451    1.1008 O.2       1 UNK         0.0000 
     37 C37        20.4738    9.6067   -1.1426 C.3       1 UNK         0.0000 
     38 H38        20.3752   10.2925   -1.9866 H         1 UNK         0.0000 
     39 C39        20.2206    8.1490   -1.6124 C.3       1 UNK         0.0000 
     40 C40        18.7911    7.7021   -1.9203 C.3       1 UNK         0.0000 
     41 C41        18.7779    6.2180   -2.3852 C.3       1 UNK         0.0000 
     42 N42        17.4411    5.5999   -2.3230 N.am      1 UNK         0.0000 
     43 O43        16.5279    6.3114   -2.9831 O.co2     1 UNK         0.0000 
     44 C44        17.0974    4.5809   -1.4818 C.2       1 UNK         0.0000 
     45 O45        15.8817    4.4450   -1.2445 O.co2     1 UNK         0.0000 
     46 C46        18.1084    3.6566   -0.8085 C.3       1 UNK         0.0000 
     47 N47        21.8174    9.6098   -0.5878 N.am      1 UNK         0.0000 
     48 C48        22.9554    9.6679   -1.2974 C.2       1 UNK         0.0000 
     49 O49        24.0184    9.2939   -0.8303 O.2       1 UNK         0.0000 
     50 C50        22.9151   10.3282   -2.6824 C.3       1 UNK         0.0000 
     51 H51        12.5817    4.2315   -5.0764 H         1 UNK         0.0000 
     52 H52        11.2698    5.3187   -4.6225 H         1 UNK         0.0000 
     53 H53        12.4815    5.8205   -5.8128 H         1 UNK         0.0000 
     54 H54        12.5509    8.9548   -4.3331 H         1 UNK         0.0000 
     55 H55        11.4890    7.6878   -4.7398 H         1 UNK         0.0000 
     56 H56        10.5785    7.6850   -2.3278 H         1 UNK         0.0000 
     57 H57        10.2074    9.0277   -3.3339 H         1 UNK         0.0000 
     58 H58        12.3071    9.0885   -1.1048 H         1 UNK         0.0000 
     59 H59        10.7059    9.7515   -1.0366 H         1 UNK         0.0000 
     60 H60        12.5788   11.3380   -0.2817 H         1 UNK         0.0000 
     61 H61        15.3126   14.8717   -1.1886 H         1 UNK         0.0000 
     62 H62        15.4233   15.0416    0.5399 H         1 UNK         0.0000 
     63 H63        13.4722   15.9345   -1.2038 H         1 UNK         0.0000 
     64 H64        15.0372   11.9892    1.2055 H         1 UNK         0.0000 
     65 H65        17.2010    8.9548    0.8428 H         1 UNK         0.0000 
     66 H66        16.2048    9.4294   -0.5211 H         1 UNK         0.0000 
     67 H67        14.3656   10.0240    0.9500 H         1 UNK         0.0000 
     68 H68        15.4219   10.1653    2.3274 H         1 UNK         0.0000 
     69 H69        15.7873    7.7237    2.4094 H         1 UNK         0.0000 
     70 H70        14.1503    8.1472    2.6176 H         1 UNK         0.0000 
     71 H71        12.4319    7.0686    2.3919 H         1 UNK         0.0000 
     72 H72        12.0797    5.4715    1.8101 H         1 UNK         0.0000 
     73 H73        11.4460    6.8623    0.9704 H         1 UNK         0.0000 
     74 H74        18.3065   11.1737   -1.3688 H         1 UNK         0.0000 
     75 H75        20.8282    7.9521   -2.5006 H         1 UNK         0.0000 
     76 H76        20.6147    7.4777   -0.8415 H         1 UNK         0.0000 
     77 H77        18.3622    8.3472   -2.6894 H         1 UNK         0.0000 
     78 H78        18.1646    7.8160   -1.0336 H         1 UNK         0.0000 
     79 H79        19.1754    6.1415   -3.4006 H         1 UNK         0.0000 
     80 H80        19.5053    5.6764   -1.7775 H         1 UNK         0.0000 
     81 H81        17.7661    2.6305   -0.9192 H         1 UNK         0.0000 
     82 H82        18.1674    3.8787    0.2562 H         1 UNK         0.0000 
     83 H83        19.1055    3.7044   -1.2331 H         1 UNK         0.0000 
     84 H84        21.8529    9.3578    0.3950 H         1 UNK         0.0000 
     85 Fe85       14.9434    6.1401   -1.7545 Fe        1 UNK         0.0000 
     86 H86        22.1219    9.8911   -3.2868 H         1 UNK         0.0000 
     87 H87        23.8481   10.1268   -3.2153 H         1 UNK         0.0000 
     88 C88        22.7099   11.8409   -2.4767 C.3       1 UNK         0.0000 
     89 H89        21.9640   12.0294   -1.6956 H         1 UNK         0.0000 
     90 C90        22.2497   12.6135   -3.7054 C.3       1 UNK         0.0000 
     91 H91        23.6363   12.2816   -2.1021 H         1 UNK         0.0000 
     92 H92        21.2843   12.2406   -4.0631 H         1 UNK         0.0000 
     93 H93        22.9539   12.4847   -4.5310 H         1 UNK         0.0000 
     94 C94        22.1335   14.0848   -3.2995 C.3       1 UNK         0.0000 
     95 H95        21.5032   14.1715   -2.4110 H         1 UNK         0.0000 
     96 C96        21.5259   14.9172   -4.4037 C.3       1 UNK         0.0000 
     97 H97        23.1122   14.4834   -3.0262 H         1 UNK         0.0000 
     98 H98        20.5676   14.4690   -4.6791 H         1 UNK         0.0000 
     99 H99        22.1531   14.8667   -5.2959 H         1 UNK         0.0000 
    100 C100       21.3097   16.3770   -3.9889 C.3       1 UNK         0.0000 
    101 H101       20.7552   16.4412   -3.0495 H         1 UNK         0.0000 
    102 C102       20.5319   17.0209   -5.1234 C.3       1 UNK         0.0000 
    103 H103       22.2650   16.8834   -3.8285 H         1 UNK         0.0000 
    104 H104       19.6622   16.3986   -5.3407 H         1 UNK         0.0000 
    105 H105       21.1779   17.0276   -5.9992 H         1 UNK         0.0000 
    106 C106       20.0205   18.4265   -4.9284 C.2       1 UNK         0.0000 
    107 C107       19.1470   18.9755   -5.7921 C.2       1 UNK         0.0000 
    108 H108       20.3875   18.9787   -4.0717 H         1 UNK         0.0000 
    109 C109       18.6017   18.2584   -7.0313 C.3       1 UNK         0.0000 
    110 H110       18.8084   19.9897   -5.6353 H         1 UNK         0.0000 
    111 H111       18.2927   17.2501   -6.7585 H         1 UNK         0.0000 
    112 C112       19.6180   18.1618   -8.1897 C.3       1 UNK         0.0000 
    113 H113       17.6813   18.7438   -7.3568 H         1 UNK         0.0000 
    114 H114       20.4932   17.5806   -7.9031 H         1 UNK         0.0000 
    115 C115       20.0549   19.5621   -8.6095 C.3       1 UNK         0.0000 
    116 H116       19.1858   17.6227   -9.0322 H         1 UNK         0.0000 
    117 H117       20.4634   20.0964   -7.7495 H         1 UNK         0.0000 
    118 H118       19.1585   20.1074   -8.9108 H         1 UNK         0.0000 
    119 C119       21.0979   19.6223   -9.7226 C.3       1 UNK         0.0000 
    120 H120       22.0590   19.2274   -9.3824 H         1 UNK         0.0000 
    121 C121       21.2289   21.0938  -10.1141 C.3       1 UNK         0.0000 
    122 H122       20.7925   19.0171  -10.5801 H         1 UNK         0.0000 
    123 H123       21.5711   21.6746   -9.2533 H         1 UNK         0.0000 
    124 H124       20.2364   21.4826  -10.3565 H         1 UNK         0.0000 
    125 C125       22.1498   21.3535  -11.2979 C.3       1 UNK         0.0000 
    126 H126       23.1756   21.0766  -11.0453 H         1 UNK         0.0000 
    127 C127       22.0650   22.8355  -11.6766 C.3       1 UNK         0.0000 
    128 H128       21.8545   20.7286  -12.1433 H         1 UNK         0.0000 
    129 H129       22.3644   23.4479  -10.8222 H         1 UNK         0.0000 
    130 H130       21.0237   23.0987  -11.8822 H         1 UNK         0.0000 
    131 C131       22.9251   23.1760  -12.8916 C.3       1 UNK         0.0000 
    132 H132       23.9654   22.9219  -12.6790 H         1 UNK         0.0000 
    133 C133       22.8075   24.6579  -13.2673 C.3       1 UNK         0.0000 
    134 H134       22.6206   22.5516  -13.7342 H         1 UNK         0.0000 
    135 H135       23.0960   25.2734  -12.4133 H         1 UNK         0.0000 
    136 H136       21.7619   24.8997  -13.4680 H         1 UNK         0.0000 
    137 C137       23.6754   24.9974  -14.4874 C.3       1 UNK         0.0000 
    138 H138       24.7260   24.7792  -14.2916 H         1 UNK         0.0000 
    139 H139       23.6011   26.0493  -14.7590 H         1 UNK         0.0000 
    140 H140       23.3749   24.4091  -15.3554 H         1 UNK         0.0000 
@<TRIPOS>BOND
     1    1    2 2    
     2    1   85 nc   
     3    2    3 1    
     4    2    4 am   BACKBONE|DICT|INTERRES
     5    3   51 1    
     6    3   52 1    
     7    3   53 1    
     8    4    5 1    
     9    4    6 1    
    10    5   85 nc   
    11    6    7 1    
    12    6   54 1    
    13    6   55 1    
    14    7    8 1    
    15    7   56 1    
    16    7   57 1    
    17    8    9 1    
    18    8   58 1    
    19    8   59 1    
    20    9   10 1    
    21    9   11 1    
    22    9   14 1    
    23   11   12 1    
    24   11   13 2    
    25   14   15 am   BACKBONE|DICT|INTERRES
    26   14   60 1    
    27   15   16 2    
    28   15   17 1    
    29   17   19 1    
    30   17   21 1    
    31   17   18 1    
    32   19   20 1    
    33   19   61 1    
    34   19   62 1    
    35   20   63 1    
    36   21   22 am   BACKBONE|DICT|INTERRES
    37   21   64 1    
    38   22   23 2    
    39   22   24 1    
    40   24   25 1    
    41   24   26 1    
    42   24   34 1    
    43   26   27 1    
    44   26   65 1    
    45   26   66 1    
    46   27   28 1    
    47   27   67 1    
    48   27   68 1    
    49   28   29 1    
    50   28   69 1    
    51   28   70 1    
    52   29   30 1    
    53   29   31 am   BACKBONE|DICT|INTERRES
    54   30   85 nc   
    55   31   32 2    
    56   31   33 1    
    57   32   85 nc   
    58   33   71 1    
    59   33   72 1    
    60   33   73 1    
    61   34   35 am   BACKBONE|DICT|INTERRES
    62   34   74 1    
    63   35   36 2    
    64   35   37 1    
    65   37   39 1    
    66   37   47 1    
    67   37   38 1    
    68   39   40 1    
    69   39   75 1    
    70   39   76 1    
    71   40   41 1    
    72   40   77 1    
    73   40   78 1    
    74   41   42 1    
    75   41   79 1    
    76   41   80 1    
    77   42   43 1    
    78   42   44 am   BACKBONE|DICT|INTERRES
    79   43   85 nc   
    80   44   45 2    
    81   44   46 1    
    82   45   85 nc   
    83   46   81 1    
    84   46   82 1    
    85   46   83 1    
    86   47   48 am   BACKBONE|DICT|INTERRES
    87   47   84 1    
    88   48   49 2    
    89   48   50 1    
    90   50   86 1    
    91   50   87 1    
    92   50   88 1    
    93   88   89 1    
    94   88   90 1    
    95   88   91 1    
    96   90   92 1    
    97   90   93 1    
    98   90   94 1    
    99   94   95 1    
   100   94   96 1    
   101   94   97 1    
   102   96   98 1    
   103   96   99 1    
   104   96  100 1    
   105  100  101 1    
   106  100  102 1    
   107  100  103 1    
   108  102  104 1    
   109  102  105 1    
   110  102  106 1    
   111  106  107 2    
   112  106  108 1    
   113  107  109 1    
   114  107  110 1    
   115  109  111 1    
   116  109  112 1    
   117  109  113 1    
   118  112  114 1    
   119  112  115 1    
   120  112  116 1    
   121  115  117 1    
   122  115  118 1    
   123  115  119 1    
   124  119  120 1    
   125  119  121 1    
   126  119  122 1    
   127  121  123 1    
   128  121  124 1    
   129  121  125 1    
   130  125  126 1    
   131  125  127 1    
   132  125  128 1    
   133  127  129 1    
   134  127  130 1    
   135  127  131 1    
   136  131  132 1    
   137  131  133 1    
   138  131  134 1    
   139  133  135 1    
   140  133  136 1    
   141  133  137 1    
   142  137  138 1    
   143  137  139 1    
   144  137  140 1    
@<TRIPOS>SUBSTRUCTURE
     1 UNK         1 GROUP             0       ****    0 ROOT    
