@<TRIPOS>MOLECULE
006_c1
111   116    1
SMALL
USER_CHARGES


@<TRIPOS>ATOM
      1 Fe1        -0.1756    1.5994    0.3789 Fe        1 UNK         0.0000 
      2 O2          5.7826   -0.7589    3.7058 O.3       1 UNK         0.0000 
      3 C3          4.9390   -1.7403    4.2410 C.3       1 UNK         0.0000 
      4 C4          3.8762   -2.1506    3.2166 C.3       1 UNK         0.0000 
      5 C5          2.8638   -1.0841    2.8083 C.2       1 UNK         0.0000 
      6 C6          2.9099    0.3313    3.3272 C.3       1 UNK         0.0000 
      7 C7          1.8730   -1.4768    1.9752 C.2       1 UNK         0.0000 
      8 C8          0.7215   -0.6483    1.5157 C.2       1 UNK         0.0000 
      9 O9          0.5519    0.5672    1.7142 O.co2     1 UNK         0.0000 
     10 N10        -0.3137   -1.1414    0.8768 N.am      1 UNK         0.0000 
     11 O11        -1.2156   -0.1794    0.8200 O.co2     1 UNK         0.0000 
     12 C12        -0.5829   -2.4740    0.3679 C.3       1 UNK         0.0000 
     13 C13         0.1568   -2.7894   -0.9588 C.3       1 UNK         0.0000 
     14 C14        -0.4229   -4.1032   -1.5202 C.3       1 UNK         0.0000 
     15 C15         0.1926   -4.7115   -2.8092 C.3       1 UNK         0.0000 
     16 H16         1.2797   -4.8260   -2.6131 H         1 UNK         0.0000 
     17 N17        -0.4272   -6.0374   -3.0244 N.am      1 UNK         0.0000 
     18 C18        -1.8629   -6.1327   -3.2944 C.3       1 UNK         0.0000 
     19 C19         0.3220   -7.1888   -2.9642 C.2       1 UNK         0.0000 
     20 O20         1.5232   -7.1387   -2.7359 O.2       1 UNK         0.0000 
     21 C21        -0.2901   -8.5532   -3.1674 C.3       1 UNK         0.0000 
     22 C22         0.1002   -3.8720   -4.0868 C.2       1 UNK         0.0000 
     23 O23        -0.5118   -4.3131   -5.0511 O.2       1 UNK         0.0000 
     24 O24         0.8392   -2.7350   -4.2257 O.3       1 UNK         0.0000 
     25 C25         1.2118   -2.1888   -5.4559 C.3       1 UNK         0.0000 
     26 C26         0.7408   -0.7363   -5.6223 C.3       1 UNK         0.0000 
     27 C27         1.2214    0.1438   -4.4851 C.2       1 UNK         0.0000 
     28 C28         2.7121    0.2714   -4.2562 C.3       1 UNK         0.0000 
     29 C29         0.2883    0.6842   -3.6720 C.2       1 UNK         0.0000 
     30 C30         0.5299    1.4393   -2.4320 C.2       1 UNK         0.0000 
     31 O31        -0.1147    1.1877   -1.4574 O.co2     1 UNK         0.0000 
     32 N32         1.3251    2.4250   -2.1328 N.am      1 UNK         0.0000 
     33 O33         1.2051    2.5753   -0.8094 O.co2     1 UNK         0.0000 
     34 C34         1.9768    3.3598   -3.0395 C.3       1 UNK         0.0000 
     35 C35         2.7751    4.4365   -2.2768 C.3       1 UNK         0.0000 
     36 C36         3.4251    5.4792   -3.2093 C.3       1 UNK         0.0000 
     37 C37         2.5177    6.6384   -3.7123 C.3       1 UNK         0.0000 
     38 H38         3.1292    7.2208   -4.4362 H         1 UNK         0.0000 
     39 N39         1.3515    6.1428   -4.4180 N.am      1 UNK         0.0000 
     40 C40         0.0690    6.4760   -4.1092 C.2       1 UNK         0.0000 
     41 O41        -0.8413    6.0102   -4.7791 O.2       1 UNK         0.0000 
     42 C42        -0.2755    7.4462   -2.9953 C.3       1 UNK         0.0000 
     43 H43        -0.7887    8.3074   -3.4775 H         1 UNK         0.0000 
     44 N44         0.8934    7.9570   -2.3066 N.am      1 UNK         0.0000 
     45 C45         2.1704    7.6038   -2.5969 C.2       1 UNK         0.0000 
     46 O46         3.0815    8.1157   -1.9623 O.2       1 UNK         0.0000 
     47 C47        -1.2694    6.8559   -1.9665 C.3       1 UNK         0.0000 
     48 C48        -0.6889    5.7081   -1.1308 C.3       1 UNK         0.0000 
     49 C49        -1.7136    5.1742   -0.1133 C.3       1 UNK         0.0000 
     50 N50        -1.1443    4.0544    0.6061 N.am      1 UNK         0.0000 
     51 O51        -1.4454    2.7615    0.4982 O.co2     1 UNK         0.0000 
     52 C52        -0.1995    3.9256    1.4491 C.2       1 UNK         0.0000 
     53 O53        -0.0347    2.6843    1.5082 O.co2     1 UNK         0.0000 
     54 C54         0.5104    5.0313    2.1409 C.2       1 UNK         0.0000 
     55 C55         1.3408    4.9009    3.1958 C.2       1 UNK         0.0000 
     56 C56         1.6453    3.5326    3.7508 C.3       1 UNK         0.0000 
     57 C57         1.8833    6.1919    3.7992 C.3       1 UNK         0.0000 
     58 C58         2.7411    6.0574    5.0595 C.3       1 UNK         0.0000 
     59 O59         3.9273    5.3707    4.7728 O.3       1 UNK         0.0000 
     60 H60         6.3696   -0.4687    4.4517 H         1 UNK         0.0000 
     61 H61         5.5451   -2.6386    4.4922 H         1 UNK         0.0000 
     62 H62         4.4370   -1.3758    5.1665 H         1 UNK         0.0000 
     63 H63         3.3064   -2.9917    3.6707 H         1 UNK         0.0000 
     64 H64         4.3890   -2.5330    2.3070 H         1 UNK         0.0000 
     65 H65         1.9662    0.5640    3.8641 H         1 UNK         0.0000 
     66 H66         3.0449    1.0082    2.4602 H         1 UNK         0.0000 
     67 H67         3.7326    0.5343    4.0337 H         1 UNK         0.0000 
     68 H68        -1.6696   -2.5070    0.1302 H         1 UNK         0.0000 
     69 H69        -0.3987   -3.2390    1.1523 H         1 UNK         0.0000 
     70 H70         1.2491   -2.8760   -0.7788 H         1 UNK         0.0000 
     71 H71        -0.0264   -1.9777   -1.6961 H         1 UNK         0.0000 
     72 H72        -0.2936   -4.8724   -0.7257 H         1 UNK         0.0000 
     73 H73        -1.5118   -3.9541   -1.6722 H         1 UNK         0.0000 
     74 H74        -2.3638   -6.7170   -2.4939 H         1 UNK         0.0000 
     75 H75        -2.0375   -6.6208   -4.2760 H         1 UNK         0.0000 
     76 H76        -2.3499   -5.1372   -3.3404 H         1 UNK         0.0000 
     77 H77        -0.7417   -8.6232   -4.1788 H         1 UNK         0.0000 
     78 H78        -1.0691   -8.7403   -2.3992 H         1 UNK         0.0000 
     79 H79         0.4806   -9.3486   -3.0782 H         1 UNK         0.0000 
     80 H80         2.3167   -2.2321   -5.5324 H         1 UNK         0.0000 
     81 H81         0.8253   -2.7805   -6.3147 H         1 UNK         0.0000 
     82 H82         1.1170   -0.3309   -6.5855 H         1 UNK         0.0000 
     83 H83        -0.3703   -0.7530   -5.6831 H         1 UNK         0.0000 
     84 H84         2.9695    0.7947   -3.3196 H         1 UNK         0.0000 
     85 H85         3.1837    0.7757   -5.1237 H         1 UNK         0.0000 
     86 H86         3.1676   -0.7305   -4.1329 H         1 UNK         0.0000 
     87 H87        -0.7506    0.4144   -3.8423 H         1 UNK         0.0000 
     88 H88         1.1785    3.8213   -3.6460 H         1 UNK         0.0000 
     89 H89         2.6676    2.8548   -3.7339 H         1 UNK         0.0000 
     90 H90         2.1704    4.9519   -1.5031 H         1 UNK         0.0000 
     91 H91         3.5941    3.8898   -1.7601 H         1 UNK         0.0000 
     92 H92         3.8828    4.9460   -4.0710 H         1 UNK         0.0000 
     93 H93         4.2666    5.9530   -2.6577 H         1 UNK         0.0000 
     94 H94         1.5157    5.5119   -5.2185 H         1 UNK         0.0000 
     95 H95         0.7367    8.6479   -1.5556 H         1 UNK         0.0000 
     96 H96        -1.5728    7.6699   -1.2717 H         1 UNK         0.0000 
     97 H97        -2.1832    6.5100   -2.4982 H         1 UNK         0.0000 
     98 H98        -0.3949    4.8808   -1.8124 H         1 UNK         0.0000 
     99 H99         0.2135    6.0634   -0.5923 H         1 UNK         0.0000 
    100 H100       -2.5974    4.8159   -0.6847 H         1 UNK         0.0000 
    101 H101       -2.0437    5.9593    0.5994 H         1 UNK         0.0000 
    102 H102        2.1487    2.9546    2.9580 H         1 UNK         0.0000 
    103 H103        0.7017    3.0266    4.0468 H         1 UNK         0.0000 
    104 H104        2.3026    3.5348    4.6375 H         1 UNK         0.0000 
    105 H105        1.0093    6.8234    4.0739 H         1 UNK         0.0000 
    106 H106        2.4707    6.7350    3.0263 H         1 UNK         0.0000 
    107 H107        2.1562    5.5329    5.8490 H         1 UNK         0.0000 
    108 H108        2.9925    7.0807    5.4166 H         1 UNK         0.0000 
    109 H109        4.3943    5.2621    5.6417 H         1 UNK         0.0000 
    110 H110        0.3814    6.0496    1.8049 H         1 UNK         0.0000 
    111 H111        1.8694   -2.4801    1.5755 H         1 UNK         0.0000 
@<TRIPOS>BOND
     1    1    9 nc   
     2    1   11 nc   
     3    1   31 nc   
     4    1   33 nc   
     5    1   51 nc   
     6    1   53 nc   
     7    2    3 1    
     8    2   60 1    
     9    3   61 1    
    10    3   62 1    
    11    3    4 1    
    12    4   63 1    
    13    4    5 1    
    14    4   64 1    
    15    5    7 2    
    16    5    6 1    
    17    6   65 1    
    18    6   67 1    
    19    6   66 1    
    20    7    8 1    
    21    7  111 1    
    22    8    9 2    
    23    8   10 am   BACKBONE|DICT|INTERRES
    24   10   11 1    
    25   10   12 1    
    26   12   69 1    
    27   12   13 1    
    28   12   68 1    
    29   13   70 1    
    30   13   14 1    
    31   13   71 1    
    32   14   72 1    
    33   14   15 1    
    34   14   73 1    
    35   15   16 1    
    36   15   17 1    
    37   15   22 1    
    38   17   19 am   BACKBONE|DICT|INTERRES
    39   17   18 1    
    40   18   74 1    
    41   18   75 1    
    42   18   76 1    
    43   19   20 2    
    44   19   21 1    
    45   21   79 1    
    46   21   78 1    
    47   21   77 1    
    48   22   23 2    
    49   22   24 1    
    50   24   25 1    
    51   25   26 1    
    52   25   80 1    
    53   25   81 1    
    54   26   27 1    
    55   26   82 1    
    56   26   83 1    
    57   27   28 1    
    58   27   29 2    
    59   28   86 1    
    60   28   84 1    
    61   28   85 1    
    62   29   30 1    
    63   29   87 1    
    64   30   32 am   BACKBONE|DICT|INTERRES
    65   30   31 2    
    66   32   33 1    
    67   32   34 1    
    68   34   35 1    
    69   34   88 1    
    70   34   89 1    
    71   35   91 1    
    72   35   90 1    
    73   35   36 1    
    74   36   93 1    
    75   36   37 1    
    76   36   92 1    
    77   37   38 1    
    78   37   45 1    
    79   37   39 1    
    80   39   40 am   BACKBONE|DICT|INTERRES
    81   39   94 1    
    82   40   42 1    
    83   40   41 2    
    84   42   43 1    
    85   42   44 1    
    86   42   47 1    
    87   44   95 1    
    88   44   45 am   BACKBONE|DICT|INTERRES
    89   45   46 2    
    90   47   96 1    
    91   47   48 1    
    92   47   97 1    
    93   48   99 1    
    94   48   49 1    
    95   48   98 1    
    96   49  101 1    
    97   49   50 1    
    98   49  100 1    
    99   50   52 am   BACKBONE|DICT|INTERRES
   100   50   51 1    
   101   52   53 2    
   102   52   54 1    
   103   54   55 2    
   104   54  110 1    
   105   55   56 1    
   106   55   57 1    
   107   56  103 1    
   108   56  104 1    
   109   56  102 1    
   110   57  105 1    
   111   57   58 1    
   112   57  106 1    
   113   58  108 1    
   114   58  107 1    
   115   58   59 1    
   116   59  109 1    
@<TRIPOS>SUBSTRUCTURE
     1 UNK         1 GROUP             0       ****    0 ROOT    
