@<TRIPOS>MOLECULE
094_c1
86   90    1
SMALL
USER_CHARGES


@<TRIPOS>ATOM
      1 Fe1         0.0258    0.6163   -0.2227 Fe        1 UNK         0.0000 
      2 O2         -1.5255    0.6560    1.0803 O.co2     1 UNK         0.0000 
      3 C3         -1.4213    0.0240    2.1416 C.2       1 UNK         0.0000 
      4 C4         -2.6911   -0.5055    2.8044 C.3       1 UNK         0.0000 
      5 N5         -0.1726   -0.2925    2.5821 N.am      1 UNK         0.0000 
      6 O6          0.9520   -0.0652    1.8894 O.co2     1 UNK         0.0000 
      7 C7          0.0812   -0.9798    3.8607 C.3       1 UNK         0.0000 
      8 C8         -0.0541   -2.5124    3.7777 C.3       1 UNK         0.0000 
      9 C9          0.6129   -3.1853    2.5589 C.3       1 UNK         0.0000 
     10 C10         0.2351   -4.6723    2.4774 C.3       1 UNK         0.0000 
     11 C11         0.7638   -5.4326    1.2433 C.3       1 UNK         0.0000 
     12 N12         0.4007   -4.8845   -0.0696 N.am      1 UNK         0.0000 
     13 C13        -0.8366   -4.6991   -0.5437 C.2       1 UNK         0.0000 
     14 O14        -1.8499   -4.8746    0.1262 O.2       1 UNK         0.0000 
     15 C15        -0.9556   -4.2775   -2.0123 C.3       1 UNK         0.0000 
     16 C16        -1.5444   -2.8656   -2.2467 C.3       1 UNK         0.0000 
     17 C17        -0.6143   -1.7163   -1.8074 C.2       1 UNK         0.0000 
     18 O18        -0.8098   -1.1412   -0.7334 O.co2     1 UNK         0.0000 
     19 N19         0.4035   -1.2611   -2.5809 N.am      1 UNK         0.0000 
     20 O20         1.1914   -0.2356   -2.2184 O.co2     1 UNK         0.0000 
     21 C21         0.6120   -1.6947   -3.9798 C.3       1 UNK         0.0000 
     22 C22        -0.2330   -0.8484   -4.9546 C.3       1 UNK         0.0000 
     23 C23         0.3562   -0.7183   -6.3662 C.3       1 UNK         0.0000 
     24 C24        -0.5384    0.0876   -7.3405 C.3       1 UNK         0.0000 
     25 C25        -1.0581    1.4572   -6.8367 C.3       1 UNK         0.0000 
     26 N26        -0.0212    2.2742   -6.1916 N.am      1 UNK         0.0000 
     27 C27        -0.0939    2.9780   -5.0583 C.2       1 UNK         0.0000 
     28 O28         0.8815    3.6248   -4.6885 O.2       1 UNK         0.0000 
     29 C29        -1.3961    3.0137   -4.2381 C.3       1 UNK         0.0000 
     30 C30        -1.2908    3.7310   -2.8669 C.3       1 UNK         0.0000 
     31 C31        -0.6357    2.8694   -1.7689 C.2       1 UNK         0.0000 
     32 O32        -1.0660    1.7275   -1.5480 O.co2     1 UNK         0.0000 
     33 N33         0.3643    3.3200   -0.9657 N.am      1 UNK         0.0000 
     34 O34         0.8270    2.6291    0.0785 O.co2     1 UNK         0.0000 
     35 C35         1.0329    4.6212   -1.1115 C.3       1 UNK         0.0000 
     36 C36         0.4705    5.6200   -0.0852 C.3       1 UNK         0.0000 
     37 C37         1.2606    6.9308   -0.0064 C.3       1 UNK         0.0000 
     38 C38         0.6359    7.9615    0.9548 C.3       1 UNK         0.0000 
     39 C39        -0.7559    8.4499    0.5072 C.3       1 UNK         0.0000 
     40 N40        -1.2669    9.5357    1.4634 N.4       1 UNK         0.0000 
     41 H41        -1.3581    9.1668    2.4003 H         1 UNK         0.0000 
     42 H42        -2.1710    9.8798    1.1662 H         1 UNK         0.0000 
     43 H43        -0.6280   10.3188    1.4856 H         1 UNK         0.0000 
     44 H44        -2.5720   -0.8015    3.8396 H         1 UNK         0.0000 
     45 H45        -3.0289   -1.3830    2.2507 H         1 UNK         0.0000 
     46 H46        -3.4944    0.2282    2.7601 H         1 UNK         0.0000 
     47 H47        -0.5614   -0.5789    4.6468 H         1 UNK         0.0000 
     48 H48         1.0894   -0.7338    4.2005 H         1 UNK         0.0000 
     49 H49         0.3411   -2.9392    4.6993 H         1 UNK         0.0000 
     50 H50        -1.1179   -2.7468    3.7671 H         1 UNK         0.0000 
     51 H51         1.6978   -3.0581    2.6026 H         1 UNK         0.0000 
     52 H52         0.2941   -2.7013    1.6325 H         1 UNK         0.0000 
     53 H53        -0.8515   -4.7674    2.5126 H         1 UNK         0.0000 
     54 H54         0.5962   -5.1738    3.3770 H         1 UNK         0.0000 
     55 H55         1.8549   -5.4241    1.2785 H         1 UNK         0.0000 
     56 H56         0.4535   -6.4779    1.2972 H         1 UNK         0.0000 
     57 H57         1.1697   -4.6382   -0.6719 H         1 UNK         0.0000 
     58 H58        -0.0435   -4.4377   -2.5844 H         1 UNK         0.0000 
     59 H59        -1.6550   -4.9949   -2.4433 H         1 UNK         0.0000 
     60 H60        -2.5310   -2.7830   -1.7874 H         1 UNK         0.0000 
     61 H61        -1.7647   -2.7478   -3.3096 H         1 UNK         0.0000 
     62 H62         0.4266   -2.7578   -4.1538 H         1 UNK         0.0000 
     63 H63         1.6709   -1.5757   -4.2277 H         1 UNK         0.0000 
     64 H64        -1.2432   -1.2490   -5.0132 H         1 UNK         0.0000 
     65 H65        -0.3402    0.1468   -4.5359 H         1 UNK         0.0000 
     66 H66         0.5322   -1.7117   -6.7813 H         1 UNK         0.0000 
     67 H67         1.3377   -0.2417   -6.3020 H         1 UNK         0.0000 
     68 H68        -1.4026   -0.5259   -7.6071 H         1 UNK         0.0000 
     69 H69         0.0071    0.2352   -8.2773 H         1 UNK         0.0000 
     70 H70        -1.8919    1.2698   -6.1581 H         1 UNK         0.0000 
     71 H71        -1.4615    2.0291   -7.6752 H         1 UNK         0.0000 
     72 H72         0.8748    2.3340   -6.6521 H         1 UNK         0.0000 
     73 H73        -2.0937    3.5801   -4.8520 H         1 UNK         0.0000 
     74 H74        -1.8572    2.0355   -4.1186 H         1 UNK         0.0000 
     75 H75        -0.9308    4.7533   -2.9622 H         1 UNK         0.0000 
     76 H76        -2.3066    3.8752   -2.4975 H         1 UNK         0.0000 
     77 H77         2.1088    4.4972   -0.9493 H         1 UNK         0.0000 
     78 H78         1.0014    5.0351   -2.1233 H         1 UNK         0.0000 
     79 H79         0.4607    5.1586    0.9018 H         1 UNK         0.0000 
     80 H80        -0.5673    5.8014   -0.3517 H         1 UNK         0.0000 
     81 H81         1.3701    7.3545   -1.0054 H         1 UNK         0.0000 
     82 H82         2.2729    6.6942    0.3320 H         1 UNK         0.0000 
     83 H83         1.3225    8.8080    1.0338 H         1 UNK         0.0000 
     84 H84         0.5793    7.5200    1.9533 H         1 UNK         0.0000 
     85 H85        -1.5150    7.6657    0.5343 H         1 UNK         0.0000 
     86 H86        -0.7369    8.9118   -0.4818 H         1 UNK         0.0000 
@<TRIPOS>BOND
     1    1    2 nc   
     2    1    6 nc   
     3    1   18 nc   
     4    1   20 nc   
     5    1   32 nc   
     6    1   34 nc   
     7    2    3 2    
     8    3    4 1    
     9    3    5 am   BACKBONE|DICT|INTERRES
    10    4   44 1    
    11    4   45 1    
    12    4   46 1    
    13    5    7 1    
    14    5    6 1    
    15    7    8 1    
    16    7   48 1    
    17    7   47 1    
    18    8   49 1    
    19    8    9 1    
    20    8   50 1    
    21    9   51 1    
    22    9   10 1    
    23    9   52 1    
    24   10   54 1    
    25   10   11 1    
    26   10   53 1    
    27   11   56 1    
    28   11   55 1    
    29   11   12 1    
    30   12   13 am   BACKBONE|DICT|INTERRES
    31   12   57 1    
    32   13   14 2    
    33   13   15 1    
    34   15   16 1    
    35   15   58 1    
    36   15   59 1    
    37   16   17 1    
    38   16   60 1    
    39   16   61 1    
    40   17   19 am   BACKBONE|DICT|INTERRES
    41   17   18 2    
    42   19   20 1    
    43   19   21 1    
    44   21   22 1    
    45   21   62 1    
    46   21   63 1    
    47   22   64 1    
    48   22   65 1    
    49   22   23 1    
    50   23   67 1    
    51   23   24 1    
    52   23   66 1    
    53   24   25 1    
    54   24   68 1    
    55   24   69 1    
    56   25   26 1    
    57   25   70 1    
    58   25   71 1    
    59   26   27 am   BACKBONE|DICT|INTERRES
    60   26   72 1    
    61   27   28 2    
    62   27   29 1    
    63   29   74 1    
    64   29   30 1    
    65   29   73 1    
    66   30   76 1    
    67   30   31 1    
    68   30   75 1    
    69   31   32 2    
    70   31   33 am   BACKBONE|DICT|INTERRES
    71   33   35 1    
    72   33   34 1    
    73   35   77 1    
    74   35   36 1    
    75   35   78 1    
    76   36   37 1    
    77   36   79 1    
    78   36   80 1    
    79   37   82 1    
    80   37   38 1    
    81   37   81 1    
    82   38   83 1    
    83   38   84 1    
    84   38   39 1    
    85   39   40 1    
    86   39   85 1    
    87   39   86 1    
    88   40   43 1    
    89   40   41 1    
    90   40   42 1    
@<TRIPOS>SUBSTRUCTURE
     1 UNK         1 GROUP             0       ****    0 ROOT    
