@<TRIPOS>MOLECULE
212_c1
77   84    1
SMALL
USER_CHARGES


@<TRIPOS>ATOM
      1 Fe1        -0.5457    2.3108    2.4444 Fe        1 UNK         0.0000 
      2 C2         -1.3158    4.3524   -2.3543 C.ar      1 UNK         0.0000 
      3 C3         -0.8747    5.4999   -1.6862 C.ar      1 UNK         0.0000 
      4 C4         -0.7263    5.4888   -0.2983 C.ar      1 UNK         0.0000 
      5 C5         -0.9840    4.3214    0.4149 C.ar      1 UNK         0.0000 
      6 O6         -0.7908    4.2943    1.6679 O.co2     1 UNK         0.0000 
      7 C7         -1.4193    3.1633   -0.2511 C.ar      1 UNK         0.0000 
      8 O8         -1.5798    2.1223    0.4601 O.co2     1 UNK         0.0000 
      9 C9         -1.6136    3.1624   -1.6529 C.ar      1 UNK         0.0000 
     10 C10        -2.0488    1.9254   -2.4349 C.2       1 UNK         0.0000 
     11 O11        -2.8999    1.1136   -2.0553 O.2       1 UNK         0.0000 
     12 N12        -1.3841    1.7320   -3.5917 N.am      1 UNK         0.0000 
     13 C13        -1.1141    0.4007   -4.1429 C.3       1 UNK         0.0000 
     14 C14         0.1409   -0.1615   -3.4570 C.3       1 UNK         0.0000 
     15 C15         0.4905   -1.6163   -3.7912 C.3       1 UNK         0.0000 
     16 C16         1.7848   -2.0755   -3.0775 C.3       1 UNK         0.0000 
     17 N17         1.7383   -1.9499   -1.6154 N.am      1 UNK         0.0000 
     18 C18         1.0195   -2.7688   -0.8339 C.2       1 UNK         0.0000 
     19 O19         0.3904   -3.7178   -1.3173 O.2       1 UNK         0.0000 
     20 C20         1.0756   -2.5455    0.7106 C.3       1 UNK         0.0000 
     21 H21         0.5241   -1.6223    0.8926 H         1 UNK         0.0000 
     22 N22         2.4820   -2.4909    1.1604 N.am      1 UNK         0.0000 
     23 C23         3.3320   -1.4834    1.4365 C.2       1 UNK         0.0000 
     24 O24         4.5268   -1.7927    1.4093 O.2       1 UNK         0.0000 
     25 C25         2.8905   -0.1310    1.7926 C.2       1 UNK         0.0000 
     26 C26         1.8157    0.0519    2.6186 C.2       1 UNK         0.0000 
     27 O27         0.7326    0.5208    2.0809 O.co2     1 UNK         0.0000 
     28 C28         2.0547    1.0064    3.7954 C.3       1 UNK         0.0000 
     29 C29         2.4715    2.3254    3.1616 C.2       1 UNK         0.0000 
     30 O30         1.5924    3.1314    2.8672 O.co2     1 UNK         0.0000 
     31 C31         3.7103    2.1633    2.3908 C.2       1 UNK         0.0000 
     32 C32         3.8839    0.9808    1.7389 C.2       1 UNK         0.0000 
     33 C33         0.2940   -3.6860    1.4323 C.3       1 UNK         0.0000 
     34 C34         0.2303   -3.6173    2.9661 C.3       1 UNK         0.0000 
     35 C35        -0.7384   -4.6935    3.5331 C.3       1 UNK         0.0000 
     36 C36        -1.1095   -4.5488    5.0234 C.3       1 UNK         0.0000 
     37 N37        -1.5376   -3.1820    5.3069 N.am      1 UNK         0.0000 
     38 C38        -0.9729   -2.3210    6.1681 C.2       1 UNK         0.0000 
     39 O39        -0.2789   -2.7025    7.1180 O.2       1 UNK         0.0000 
     40 C40        -1.1630   -0.8548    5.8355 C.ar      1 UNK         0.0000 
     41 C41        -1.7811   -0.4575    4.6326 C.ar      1 UNK         0.0000 
     42 C42        -1.6928    0.8553    4.2079 C.ar      1 UNK         0.0000 
     43 O43        -1.9012    1.1667    3.0134 O.co2     1 UNK         0.0000 
     44 C44        -1.0333    1.8098    4.9646 C.ar      1 UNK         0.0000 
     45 O45        -0.6650    2.8151    4.2909 O.co2     1 UNK         0.0000 
     46 C46        -0.5278    1.4841    6.2192 C.ar      1 UNK         0.0000 
     47 C47        -0.5856    0.1467    6.6451 C.ar      1 UNK         0.0000 
     48 H48        -1.4262    4.4010   -3.4256 H         1 UNK         0.0000 
     49 H49        -0.6417    6.3999   -2.2351 H         1 UNK         0.0000 
     50 H50        -0.3915    6.3706    0.2276 H         1 UNK         0.0000 
     51 H51        -0.8461    2.5169   -3.9173 H         1 UNK         0.0000 
     52 H52        -0.9840    0.4190   -5.2262 H         1 UNK         0.0000 
     53 H53        -1.9570   -0.2843   -4.0016 H         1 UNK         0.0000 
     54 H54         0.9908    0.4749   -3.6974 H         1 UNK         0.0000 
     55 H55         0.0165   -0.0914   -2.3739 H         1 UNK         0.0000 
     56 H56        -0.3371   -2.2733   -3.5087 H         1 UNK         0.0000 
     57 H57         0.5981   -1.7351   -4.8722 H         1 UNK         0.0000 
     58 H58         2.6156   -1.4482   -3.4065 H         1 UNK         0.0000 
     59 H59         2.0358   -3.0991   -3.3715 H         1 UNK         0.0000 
     60 H60         2.1847   -1.1643   -1.1583 H         1 UNK         0.0000 
     61 H61         2.9775   -3.3476    1.0295 H         1 UNK         0.0000 
     62 H62         2.8723    0.6367    4.4125 H         1 UNK         0.0000 
     63 H63         0.7129   -4.6505    1.1449 H         1 UNK         0.0000 
     64 H64        -0.7329   -3.6654    1.0586 H         1 UNK         0.0000 
     65 H65         1.2266   -3.7307    3.3991 H         1 UNK         0.0000 
     66 H66        -0.0898   -2.6080    3.2357 H         1 UNK         0.0000 
     67 H67        -1.6638   -4.6782    2.9551 H         1 UNK         0.0000 
     68 H68        -0.3176   -5.6882    3.3631 H         1 UNK         0.0000 
     69 H69        -1.9081   -5.2450    5.2895 H         1 UNK         0.0000 
     70 H70        -0.2437   -4.8225    5.6298 H         1 UNK         0.0000 
     71 H71        -2.1572   -2.7380    4.6427 H         1 UNK         0.0000 
     72 H72        -2.1558   -1.1638    3.9097 H         1 UNK         0.0000 
     73 H73         0.0490    2.1955    6.7872 H         1 UNK         0.0000 
     74 H74        -0.0598   -0.1377    7.5450 H         1 UNK         0.0000 
     75 H75         1.2052    1.1004    4.4678 H         1 UNK         0.0000 
     76 H76         4.4475    2.9496    2.3111 H         1 UNK         0.0000 
     77 H77         4.7959    0.8462    1.1833 H         1 UNK         0.0000 
@<TRIPOS>BOND
     1    1    6 nc   
     2    1    8 nc   
     3    1   27 nc   
     4    1   30 nc   
     5    1   43 nc   
     6    1   45 nc   
     7    2    3 ar   
     8    2    9 ar   
     9    2   48 1    
    10    3    4 ar   
    11    3   49 1    
    12    4   50 1    
    13    4    5 ar   
    14    5    6 1    
    15    5    7 ar   
    16    7    8 1    
    17    7    9 ar   
    18    9   10 1    
    19   10   11 2    
    20   10   12 am   BACKBONE|DICT|INTERRES
    21   12   13 1    
    22   12   51 1    
    23   13   53 1    
    24   13   14 1    
    25   13   52 1    
    26   14   55 1    
    27   14   15 1    
    28   14   54 1    
    29   15   56 1    
    30   15   16 1    
    31   15   57 1    
    32   16   17 1    
    33   16   58 1    
    34   16   59 1    
    35   17   60 1    
    36   17   18 am   BACKBONE|DICT|INTERRES
    37   18   20 1    
    38   18   19 2    
    39   20   21 1    
    40   20   22 1    
    41   20   33 1    
    42   22   23 am   BACKBONE|DICT|INTERRES
    43   22   61 1    
    44   23   25 1    
    45   23   24 2    
    46   25   26 2    
    47   25   32 1    
    48   26   27 1    
    49   26   28 1    
    50   28   62 1    
    51   28   29 1    
    52   28   75 1    
    53   29   30 2    
    54   29   31 1    
    55   31   32 2    
    56   31   76 1    
    57   32   77 1    
    58   33   34 1    
    59   33   63 1    
    60   33   64 1    
    61   34   66 1    
    62   34   65 1    
    63   34   35 1    
    64   35   36 1    
    65   35   67 1    
    66   35   68 1    
    67   36   37 1    
    68   36   69 1    
    69   36   70 1    
    70   37   38 am   BACKBONE|DICT|INTERRES
    71   37   71 1    
    72   38   39 2    
    73   38   40 1    
    74   40   47 ar   
    75   40   41 ar   
    76   41   42 ar   
    77   41   72 1    
    78   42   44 ar   
    79   42   43 1    
    80   44   46 ar   
    81   44   45 1    
    82   46   47 ar   
    83   46   73 1    
    84   47   74 1    
@<TRIPOS>SUBSTRUCTURE
     1 UNK         1 GROUP             0       ****    0 ROOT    
