@<TRIPOS>MOLECULE
266_c1
73   81    1
SMALL
USER_CHARGES


@<TRIPOS>ATOM
      1 Fe1        -1.2147    2.5136    0.3874 Fe        1 UNK         0.0000 
      2 O2          0.7937    2.0162   -0.0276 O.co2     1 UNK         0.0000 
      3 C3          1.7280    2.8319    0.2320 C.ar      1 UNK         0.0000 
      4 C4          1.2777    4.1226    0.5373 C.ar      1 UNK         0.0000 
      5 O5          0.0320    4.2950    0.5338 O.co2     1 UNK         0.0000 
      6 C6          2.1540    5.1328    0.8743 C.ar      1 UNK         0.0000 
      7 C7          3.5158    4.8614    0.9152 C.ar      1 UNK         0.0000 
      8 C8          3.9738    3.5713    0.6133 C.ar      1 UNK         0.0000 
      9 C9          3.0942    2.5277    0.2794 C.ar      1 UNK         0.0000 
     10 C10         3.6722    1.1618   -0.0647 C.2       1 UNK         0.0000 
     11 O11         4.7299    1.1125   -0.7157 O.2       1 UNK         0.0000 
     12 N12         3.0579    0.0077    0.3430 N.am      1 UNK         0.0000 
     13 C13         3.3146   -1.2247   -0.4226 C.3       1 UNK         0.0000 
     14 C14         2.0705   -2.0464   -0.7852 C.3       1 UNK         0.0000 
     15 C15         0.9322   -1.3013   -1.5221 C.3       1 UNK         0.0000 
     16 N16        -0.3926   -1.9774   -1.4989 N.am      1 UNK         0.0000 
     17 C17        -1.5007   -1.3554   -2.0132 C.2       1 UNK         0.0000 
     18 O18        -2.5637   -1.9829   -2.1393 O.2       1 UNK         0.0000 
     19 C19        -1.3973    0.0907   -2.5017 C.ar      1 UNK         0.0000 
     20 C20        -1.9182    1.1917   -1.7800 C.ar      1 UNK         0.0000 
     21 O21        -2.4423    1.1187   -0.6447 O.co2     1 UNK         0.0000 
     22 C22        -1.6899    2.5050   -2.1832 C.ar      1 UNK         0.0000 
     23 O23        -1.9864    3.4137   -1.3537 O.co2     1 UNK         0.0000 
     24 C24        -0.9631    2.7785   -3.3343 C.ar      1 UNK         0.0000 
     25 C25        -0.4487    1.7117   -4.0759 C.ar      1 UNK         0.0000 
     26 C26        -0.6561    0.3840   -3.6642 C.ar      1 UNK         0.0000 
     27 C27        -0.5877   -3.1636   -0.6084 C.3       1 UNK         0.0000 
     28 C28        -0.8040   -2.7884    0.8833 C.3       1 UNK         0.0000 
     29 C29         0.0161   -3.6601    1.8722 C.3       1 UNK         0.0000 
     30 C30         0.0575   -3.2003    3.3519 C.3       1 UNK         0.0000 
     31 N31         0.1747   -1.7396    3.5943 N.am      1 UNK         0.0000 
     32 C32         1.5344   -1.1708    3.7754 C.3       1 UNK         0.0000 
     33 C33         2.4735   -1.1278    2.5505 C.3       1 UNK         0.0000 
     34 C34         2.1038   -0.0728    1.4836 C.3       1 UNK         0.0000 
     35 C35        -0.9662   -1.0125    3.7985 C.2       1 UNK         0.0000 
     36 O36        -2.0475   -1.5881    4.0171 O.2       1 UNK         0.0000 
     37 C37        -0.9234    0.5032    3.9055 C.ar      1 UNK         0.0000 
     38 C38        -1.3039    1.3423    2.8495 C.ar      1 UNK         0.0000 
     39 O39        -1.3060    0.9840    1.6482 O.co2     1 UNK         0.0000 
     40 C40        -1.5757    2.6933    3.0508 C.ar      1 UNK         0.0000 
     41 O41        -2.0145    3.3287    2.0431 O.co2     1 UNK         0.0000 
     42 C42        -1.2475    3.2989    4.2623 C.ar      1 UNK         0.0000 
     43 C43        -0.7021    2.5105    5.2841 C.ar      1 UNK         0.0000 
     44 C44        -0.5810    1.1200    5.1207 C.ar      1 UNK         0.0000 
     45 H45         1.7401    6.1005    1.1099 H         1 UNK         0.0000 
     46 H46         4.2047    5.6562    1.1571 H         1 UNK         0.0000 
     47 H47         5.0304    3.3738    0.6137 H         1 UNK         0.0000 
     48 H48         3.8283   -0.9848   -1.3531 H         1 UNK         0.0000 
     49 H49         4.0084   -1.8292    0.1674 H         1 UNK         0.0000 
     50 H50         2.3743   -2.9248   -1.3554 H         1 UNK         0.0000 
     51 H51         1.7009   -2.3989    0.1570 H         1 UNK         0.0000 
     52 H52         1.2457   -1.1097   -2.5550 H         1 UNK         0.0000 
     53 H53         0.8074   -0.3062   -1.0756 H         1 UNK         0.0000 
     54 H54        -0.7253    3.8026   -3.5745 H         1 UNK         0.0000 
     55 H55         0.1802    1.9438   -4.9196 H         1 UNK         0.0000 
     56 H56        -0.1981   -0.4051   -4.2462 H         1 UNK         0.0000 
     57 H57         0.2529   -3.8548   -0.7155 H         1 UNK         0.0000 
     58 H58        -1.4620   -3.7278   -0.9366 H         1 UNK         0.0000 
     59 H59        -0.5600   -1.7343    1.0255 H         1 UNK         0.0000 
     60 H60        -1.8730   -2.8333    1.1135 H         1 UNK         0.0000 
     61 H61        -0.3475   -4.6884    1.8388 H         1 UNK         0.0000 
     62 H62         1.0455   -3.7391    1.5394 H         1 UNK         0.0000 
     63 H63        -0.8714   -3.5569    3.8047 H         1 UNK         0.0000 
     64 H64         0.8426   -3.7328    3.8961 H         1 UNK         0.0000 
     65 H65         2.0322   -1.7275    4.5714 H         1 UNK         0.0000 
     66 H66         1.4651   -0.1475    4.1449 H         1 UNK         0.0000 
     67 H67         3.4603   -0.8469    2.9213 H         1 UNK         0.0000 
     68 H68         2.5818   -2.1192    2.1189 H         1 UNK         0.0000 
     69 H69         1.0980   -0.2510    1.0937 H         1 UNK         0.0000 
     70 H70         2.0033    0.8914    1.9914 H         1 UNK         0.0000 
     71 H71        -1.3055    4.3814    4.3538 H         1 UNK         0.0000 
     72 H72        -0.3750    2.9771    6.1928 H         1 UNK         0.0000 
     73 H73        -0.2107    0.5172    5.9322 H         1 UNK         0.0000 
@<TRIPOS>BOND
     1    1    2 nc   
     2    1    5 nc   
     3    1   21 nc   
     4    1   23 nc   
     5    1   39 nc   
     6    1   41 nc   
     7    2    3 1    
     8    3    4 ar   
     9    3    9 ar   
    10    4    6 ar   
    11    4    5 1    
    12    6   45 1    
    13    6    7 ar   
    14    7   46 1    
    15    7    8 ar   
    16    8    9 ar   
    17    8   47 1    
    18    9   10 1    
    19   10   12 am   BACKBONE|DICT|INTERRES
    20   10   11 2    
    21   12   34 1    
    22   12   13 1    
    23   13   49 1    
    24   13   14 1    
    25   13   48 1    
    26   14   51 1    
    27   14   15 1    
    28   14   50 1    
    29   15   16 1    
    30   15   53 1    
    31   15   52 1    
    32   16   27 1    
    33   16   17 am   BACKBONE|DICT|INTERRES
    34   17   18 2    
    35   17   19 1    
    36   19   20 ar   
    37   19   26 ar   
    38   20   21 1    
    39   20   22 ar   
    40   22   23 1    
    41   22   24 ar   
    42   24   25 ar   
    43   24   54 1    
    44   25   26 ar   
    45   25   55 1    
    46   26   56 1    
    47   27   28 1    
    48   27   57 1    
    49   27   58 1    
    50   28   59 1    
    51   28   60 1    
    52   28   29 1    
    53   29   30 1    
    54   29   61 1    
    55   29   62 1    
    56   30   31 1    
    57   30   63 1    
    58   30   64 1    
    59   31   32 1    
    60   31   35 am   BACKBONE|DICT|INTERRES
    61   32   66 1    
    62   32   65 1    
    63   32   33 1    
    64   33   67 1    
    65   33   34 1    
    66   33   68 1    
    67   34   70 1    
    68   34   69 1    
    69   35   37 1    
    70   35   36 2    
    71   37   44 ar   
    72   37   38 ar   
    73   38   40 ar   
    74   38   39 1    
    75   40   42 ar   
    76   40   41 1    
    77   42   71 1    
    78   42   43 ar   
    79   43   72 1    
    80   43   44 ar   
    81   44   73 1    
@<TRIPOS>SUBSTRUCTURE
     1 UNK         1 GROUP             0       ****    0 ROOT    
