@<TRIPOS>MOLECULE
185_J5_c1
99   106    1
SMALL
USER_CHARGES


@<TRIPOS>ATOM
      1 Fe1         0.0003    0.0284   -0.0287 Fe        1 UNK         0.0000 
      2 C2         -0.1313    5.5684    1.2307 C.ar      1 UNK         0.0000 
      3 C3         -1.4817    5.7393    1.5455 C.ar      1 UNK         0.0000 
      4 C4         -2.3699    4.6947    1.3354 C.ar      1 UNK         0.0000 
      5 C5         -1.9167    3.5040    0.7779 C.ar      1 UNK         0.0000 
      6 C6         -0.5703    3.2942    0.4697 C.ar      1 UNK         0.0000 
      7 O7         -0.2600    2.1575   -0.0343 O.co2     1 UNK         0.0000 
      8 C8          0.3589    4.3413    0.7170 C.ar      1 UNK         0.0000 
      9 C9          1.8513    4.1598    0.4870 C.2       1 UNK         0.0000 
     10 O10         2.4522    3.1548    0.8633 O.2       1 UNK         0.0000 
     11 N11         2.4830    5.2147   -0.0625 N.am      1 UNK         0.0000 
     12 C12         3.9244    5.4427   -0.2854 C.3       1 UNK         0.0000 
     13 H13         3.9885    5.9691   -1.2473 H         1 UNK         0.0000 
     14 C14         4.5041    6.4250    0.7797 C.3       1 UNK         0.0000 
     15 O15         3.8089    7.6686    0.7915 O.3       1 UNK         0.0000 
     16 C16         4.8669    4.1941   -0.4244 C.3       1 UNK         0.0000 
     17 C17         4.7150    3.3148   -1.7092 C.3       1 UNK         0.0000 
     18 C18         3.9856    1.9382   -1.6062 C.3       1 UNK         0.0000 
     19 C19         4.6324    0.9651   -0.5723 C.3       1 UNK         0.0000 
     20 N20         4.1919   -0.4365   -0.6491 N.am      1 UNK         0.0000 
     21 C21         2.9778   -0.8557   -0.2490 C.2       1 UNK         0.0000 
     22 O22         2.1639   -0.0371    0.1932 O.co2     1 UNK         0.0000 
     23 C23         2.5664   -2.3130   -0.5165 C.ar      1 UNK         0.0000 
     24 C24         1.2295   -2.7852   -0.3579 C.ar      1 UNK         0.0000 
     25 O25         0.2341   -2.0749   -0.0210 O.co2     1 UNK         0.0000 
     26 C26         0.9039   -4.1157   -0.6064 C.ar      1 UNK         0.0000 
     27 C27         1.8667   -5.0217   -1.0249 C.ar      1 UNK         0.0000 
     28 C28         3.1727   -4.5914   -1.2213 C.ar      1 UNK         0.0000 
     29 C29         3.5157   -3.2562   -0.9763 C.ar      1 UNK         0.0000 
     30 H30         0.5439    6.3939    1.4214 H         1 UNK         0.0000 
     31 H31        -1.8541    6.6716    1.9479 H         1 UNK         0.0000 
     32 H32        -3.4178    4.7739    1.5855 H         1 UNK         0.0000 
     33 H33        -2.6302    2.7314    0.5887 H         1 UNK         0.0000 
     34 H34         1.8966    6.0259   -0.1186 H         1 UNK         0.0000 
     35 H35         5.5530    6.6397    0.5721 H         1 UNK         0.0000 
     36 H36         4.4502    5.9817    1.7786 H         1 UNK         0.0000 
     37 H37         4.0590    8.1767    0.0095 H         1 UNK         0.0000 
     38 H38         5.8944    4.5703   -0.4342 H         1 UNK         0.0000 
     39 H39         4.8223    3.5912    0.4833 H         1 UNK         0.0000 
     40 H40         4.2586    3.9061   -2.5091 H         1 UNK         0.0000 
     41 H41         5.7299    3.0962   -2.0547 H         1 UNK         0.0000 
     42 H42         4.0030    1.4789   -2.5986 H         1 UNK         0.0000 
     43 H43         2.9200    2.0909   -1.4008 H         1 UNK         0.0000 
     44 H44         4.4679    1.3551    0.4358 H         1 UNK         0.0000 
     45 H45         5.7155    0.9840   -0.7061 H         1 UNK         0.0000 
     46 H46         4.8074   -1.1339   -1.0249 H         1 UNK         0.0000 
     47 H47        -0.1174   -4.4388   -0.4795 H         1 UNK         0.0000 
     48 H48         1.5835   -6.0494   -1.1950 H         1 UNK         0.0000 
     49 H49         3.9219   -5.2948   -1.5502 H         1 UNK         0.0000 
     50 H50         4.5357   -2.9502   -1.1623 H         1 UNK         0.0000 
     51 C51         0.1332   -1.2270   -5.5702 C.ar      1 UNK         0.0000 
     52 C52         1.4826   -1.5447   -5.7407 C.ar      1 UNK         0.0000 
     53 C53         2.3713   -1.3361   -4.6954 C.ar      1 UNK         0.0000 
     54 C54         1.9182   -0.7781   -3.5047 C.ar      1 UNK         0.0000 
     55 C55         0.5722   -0.4685   -3.2954 C.ar      1 UNK         0.0000 
     56 O56         0.2615    0.0335   -2.1578 O.co2     1 UNK         0.0000 
     57 C57        -0.3568   -0.7138   -4.3430 C.ar      1 UNK         0.0000 
     58 C58        -1.8493   -0.4832   -4.1609 C.2       1 UNK         0.0000 
     59 O59        -2.4496   -0.8601   -3.1559 O.2       1 UNK         0.0000 
     60 N60        -2.4814    0.0661   -5.2159 N.am      1 UNK         0.0000 
     61 C61        -3.9233    0.2860   -5.4438 C.3       1 UNK         0.0000 
     62 H62        -3.9897    1.2465   -5.9722 H         1 UNK         0.0000 
     63 C63        -4.5020   -0.7821   -6.4237 C.3       1 UNK         0.0000 
     64 O64        -3.8060   -0.7985   -7.6669 O.3       1 UNK         0.0000 
     65 C65        -4.8652    0.4252   -4.1947 C.3       1 UNK         0.0000 
     66 C66        -4.7132    1.7100   -3.3154 C.3       1 UNK         0.0000 
     67 C67        -3.9848    1.6073   -1.9380 C.3       1 UNK         0.0000 
     68 C68        -4.6319    0.5739   -0.9647 C.3       1 UNK         0.0000 
     69 N69        -4.1912    0.6503    0.4369 N.am      1 UNK         0.0000 
     70 C70        -2.9770    0.2491    0.8560 C.2       1 UNK         0.0000 
     71 O71        -2.1636   -0.1932    0.0369 O.co2     1 UNK         0.0000 
     72 C72        -2.5657    0.5166    2.3135 C.ar      1 UNK         0.0000 
     73 C73        -1.2288    0.3578    2.7854 C.ar      1 UNK         0.0000 
     74 O74        -0.2337    0.0210    2.0746 O.co2     1 UNK         0.0000 
     75 C75        -0.9027    0.6061    4.1159 C.ar      1 UNK         0.0000 
     76 C76        -1.8652    1.0250    5.0222 C.ar      1 UNK         0.0000 
     77 C77        -3.1714    1.2211    4.5921 C.ar      1 UNK         0.0000 
     78 C78        -3.5147    0.9759    3.2571 C.ar      1 UNK         0.0000 
     79 H79        -0.5423   -1.4170   -6.3960 H         1 UNK         0.0000 
     80 H80         1.8552   -1.9477   -6.6728 H         1 UNK         0.0000 
     81 H81         3.4187   -1.5881   -4.7740 H         1 UNK         0.0000 
     82 H82         2.6318   -0.5909   -2.7317 H         1 UNK         0.0000 
     83 H83        -1.8950    0.1229   -6.0270 H         1 UNK         0.0000 
     84 H84        -5.5507   -0.5752   -6.6402 H         1 UNK         0.0000 
     85 H85        -4.4489   -1.7799   -5.9774 H         1 UNK         0.0000 
     86 H86        -4.0562   -0.0186   -8.1782 H         1 UNK         0.0000 
     87 H87        -5.8930    0.4344   -4.5704 H         1 UNK         0.0000 
     88 H88        -4.8199   -0.4823   -3.5915 H         1 UNK         0.0000 
     89 H89        -4.2562    2.5095   -3.9068 H         1 UNK         0.0000 
     90 H90        -5.7283    2.0559   -3.0977 H         1 UNK         0.0000 
     91 H91        -4.0029    2.6000   -1.4793 H         1 UNK         0.0000 
     92 H92        -2.9190    1.4023   -2.0900 H         1 UNK         0.0000 
     93 H93        -4.4677   -0.4343   -1.3548 H         1 UNK         0.0000 
     94 H94        -5.7150    0.7082   -0.9835 H         1 UNK         0.0000 
     95 H95        -4.8065    1.0258    1.1345 H         1 UNK         0.0000 
     96 H96         0.1188    0.4795    4.4387 H         1 UNK         0.0000 
     97 H97        -1.5817    1.1949    6.0498 H         1 UNK         0.0000 
     98 H98        -3.9203    1.5499    5.2959 H         1 UNK         0.0000 
     99 H99        -4.5348    1.1621    2.9514 H         1 UNK         0.0000 
@<TRIPOS>BOND
     1    1    7 nc   
     2    1   22 nc   
     3    1   25 nc   
     4    1   56 nc   
     5    1   71 nc   
     6    1   74 nc   
     7    2   30 1    
     8    2    3 ar   
     9    2    8 ar   
    10    3   31 1    
    11    3    4 ar   
    12    4   32 1    
    13    4    5 ar   
    14    5    6 ar   
    15    5   33 1    
    16    6    8 ar   
    17    6    7 1    
    18    8    9 1    
    19    9   10 2    
    20    9   11 am   BACKBONE|DICT|INTERRES
    21   11   12 1    
    22   11   34 1    
    23   12   13 1    
    24   12   14 1    
    25   12   16 1    
    26   14   15 1    
    27   14   36 1    
    28   14   35 1    
    29   15   37 1    
    30   16   39 1    
    31   16   17 1    
    32   16   38 1    
    33   17   18 1    
    34   17   40 1    
    35   17   41 1    
    36   18   43 1    
    37   18   19 1    
    38   18   42 1    
    39   19   44 1    
    40   19   20 1    
    41   19   45 1    
    42   20   21 am   BACKBONE|DICT|INTERRES
    43   20   46 1    
    44   21   22 2    
    45   21   23 1    
    46   23   24 ar   
    47   23   29 ar   
    48   24   25 1    
    49   24   26 ar   
    50   26   47 1    
    51   26   27 ar   
    52   27   28 ar   
    53   27   48 1    
    54   28   29 ar   
    55   28   49 1    
    56   29   50 1    
    57   51   57 ar   
    58   51   52 ar   
    59   51   79 1    
    60   52   53 ar   
    61   52   80 1    
    62   53   54 ar   
    63   53   81 1    
    64   54   55 ar   
    65   54   82 1    
    66   55   56 1    
    67   55   57 ar   
    68   57   58 1    
    69   58   59 2    
    70   58   60 am   BACKBONE|DICT|INTERRES
    71   60   61 1    
    72   60   83 1    
    73   61   62 1    
    74   61   65 1    
    75   61   63 1    
    76   63   85 1    
    77   63   64 1    
    78   63   84 1    
    79   64   86 1    
    80   65   88 1    
    81   65   66 1    
    82   65   87 1    
    83   66   90 1    
    84   66   67 1    
    85   66   89 1    
    86   67   91 1    
    87   67   68 1    
    88   67   92 1    
    89   68   69 1    
    90   68   93 1    
    91   68   94 1    
    92   69   70 am   BACKBONE|DICT|INTERRES
    93   69   95 1    
    94   70   71 2    
    95   70   72 1    
    96   72   73 ar   
    97   72   78 ar   
    98   73   75 ar   
    99   73   74 1    
   100   75   96 1    
   101   75   76 ar   
   102   76   97 1    
   103   76   77 ar   
   104   77   98 1    
   105   77   78 ar   
   106   78   99 1    
@<TRIPOS>SUBSTRUCTURE
     1 UNK         1 GROUP             0       ****    0 ROOT    
