@<TRIPOS>MOLECULE
184_T_c1
134   141    1
SMALL
USER_CHARGES


@<TRIPOS>ATOM
      1 O1         -5.2492    5.1834    3.2633 O.co2     1 UNK         0.0000 
      2 N2         -4.0913    5.0462    2.5492 N.am      1 UNK         0.0000 
      3 C3         -4.2614    4.9197    1.0803 C.3       1 UNK         0.0000 
      4 C4         -3.3343    5.7363    0.1193 C.3       1 UNK         0.0000 
      5 C5         -1.8457    5.3400    0.1340 C.3       1 UNK         0.0000 
      6 C6         -1.1845    5.6400    1.4978 C.3       1 UNK         0.0000 
      7 C7         -1.5607    4.6738    2.6601 C.3       1 UNK         0.0000 
      8 H8         -1.1068    5.1042    3.5482 H         1 UNK         0.0000 
      9 C9         -3.0400    4.4410    3.1834 C.2       1 UNK         0.0000 
     10 O10        -3.2841    3.6932    4.1392 O.co2     1 UNK         0.0000 
     11 N11        -0.9676    3.3433    2.4150 N.am      1 UNK         0.0000 
     12 C12        -0.2743    2.6034    3.2809 C.2       1 UNK         0.0000 
     13 O13         0.4367    3.0578    4.1584 O.2       1 UNK         0.0000 
     14 C14        -0.4564    1.0860    3.1322 C.3       1 UNK         0.0000 
     15 C15        -1.9512    0.6560    3.1615 C.3       1 UNK         0.0000 
     16 H16        -2.4690    1.2123    3.9346 H         1 UNK         0.0000 
     17 C17        -2.6655    0.8658    1.8029 C.3       1 UNK         0.0000 
     18 O18        -1.9589   -0.7272    3.4874 O.3       1 UNK         0.0000 
     19 C19        -3.0840   -1.4784    3.6940 C.2       1 UNK         0.0000 
     20 O20        -3.1616   -2.5916    3.1561 O.2       1 UNK         0.0000 
     21 C21        -4.2297   -0.9396    4.5887 C.3       1 UNK         0.0000 
     22 H22        -4.5322   -1.8429    5.1255 H         1 UNK         0.0000 
     23 N23        -3.8145    0.0973    5.5653 N.am      1 UNK         0.0000 
     24 C24        -3.9245   -0.0289    6.8993 C.2       1 UNK         0.0000 
     25 O25        -4.0802   -1.1245    7.4403 O.2       1 UNK         0.0000 
     26 C26        -3.8921    1.2540    7.7953 C.3       1 UNK         0.0000 
     27 H27        -3.9686    0.9154    8.8323 H         1 UNK         0.0000 
     28 N28        -2.6889    2.0302    7.6364 N.2       1 UNK         0.0000 
     29 C29        -3.0376    3.1326    7.1020 C.2       1 UNK         0.0000 
     30 O30        -4.3837    3.2235    6.7176 O.3       1 UNK         0.0000 
     31 C31        -5.0346    2.2266    7.4834 C.3       1 UNK         0.0000 
     32 C32        -2.1599    4.2888    6.7904 C.ar      1 UNK         0.0000 
     33 C33        -2.6372    5.5161    6.2972 C.ar      1 UNK         0.0000 
     34 O34        -3.8766    5.7155    6.0145 O.co2     1 UNK         0.0000 
     35 C35        -1.7220    6.5489    6.0454 C.ar      1 UNK         0.0000 
     36 C36        -0.3464    6.3664    6.2787 C.ar      1 UNK         0.0000 
     37 C37         0.1245    5.1585    6.7590 C.ar      1 UNK         0.0000 
     38 C38        -0.7674    4.1202    7.0141 C.ar      1 UNK         0.0000 
     39 C39        -5.5405   -0.5164    3.8417 C.3       1 UNK         0.0000 
     40 C40        -6.7537   -0.3827    4.8231 C.3       1 UNK         0.0000 
     41 C41        -8.0765    0.2360    4.2985 C.3       1 UNK         0.0000 
     42 C42        -8.1718    1.7662    3.9957 C.3       1 UNK         0.0000 
     43 N43        -7.3801    2.6593    4.8376 N.am      1 UNK         0.0000 
     44 O44        -6.0623    2.5670    4.5334 O.co2     1 UNK         0.0000 
     45 C45        -7.8819    3.6711    5.6349 C.2       1 UNK         0.0000 
     46 O46        -6.9608    4.4657    5.9756 O.co2     1 UNK         0.0000 
     47 C47        -9.4352    3.9657    6.1097 C.3       1 UNK         0.0000 
     48 C48       -10.7390    2.9866    6.4839 C.3       1 UNK         0.0000 
     49 C49       -12.3964    3.0097    6.2899 C.3       1 UNK         0.0000 
     50 C50       -13.4879    2.8889    7.5100 C.3       1 UNK         0.0000 
     51 C51       -15.0523    2.3614    7.3276 C.3       1 UNK         0.0000 
     52 C52       -16.3635    2.8897    8.1930 C.3       1 UNK         0.0000 
     53 C53       -17.8241    2.1210    8.2399 C.3       1 UNK         0.0000 
     54 C54       -19.1562    2.6891    9.0246 C.3       1 UNK         0.0000 
     55 C55       -20.6382    1.9744    8.9702 C.3       1 UNK         0.0000 
     56 C56       -21.8298    2.2946   10.0475 C.3       1 UNK         0.0000 
     57 C57       -23.4092    2.1032    9.6978 C.3       1 UNK         0.0000 
     58 C58       -24.5468    2.0740   10.8569 C.3       1 UNK         0.0000 
     59 C59       -26.1168    2.0075   10.4806 C.3       1 UNK         0.0000 
     60 C60       -27.2395    2.0028   11.6300 C.3       1 UNK         0.0000 
     61 C61       -28.7591    1.7915   11.2067 C.3       1 UNK         0.0000 
     62 C62       -29.8939    1.8963   12.3050 C.3       1 UNK         0.0000 
     63 C63       -31.3564    1.6376   11.7874 C.3       1 UNK         0.0000 
     64 C64       -32.5067    1.4567   12.8398 C.3       1 UNK         0.0000 
     65 C65       -33.4165    2.6848   13.1013 C.3       1 UNK         0.0000 
     66 H66        -5.2877    5.1829    0.8225 H         1 UNK         0.0000 
     67 H67        -4.2014    3.8517    0.8509 H         1 UNK         0.0000 
     68 H68        -3.4467    6.7954    0.3573 H         1 UNK         0.0000 
     69 H69        -3.6930    5.6374   -0.9096 H         1 UNK         0.0000 
     70 H70        -1.3114    5.8546   -0.6637 H         1 UNK         0.0000 
     71 H71        -1.7266    4.2813   -0.1057 H         1 UNK         0.0000 
     72 H72        -1.3785    6.6719    1.8060 H         1 UNK         0.0000 
     73 H73        -0.1002    5.6082    1.3546 H         1 UNK         0.0000 
     74 H74        -1.2490    2.8869    1.5710 H         1 UNK         0.0000 
     75 H75         0.0885    0.6263    3.9637 H         1 UNK         0.0000 
     76 H76         0.0287    0.7345    2.2215 H         1 UNK         0.0000 
     77 H77        -2.8830    1.9115    1.6316 H         1 UNK         0.0000 
     78 H78        -3.6320    0.3718    1.7486 H         1 UNK         0.0000 
     79 H79        -2.0760    0.5015    0.9643 H         1 UNK         0.0000 
     80 H80        -3.7370    1.0326    5.2019 H         1 UNK         0.0000 
     81 H81        -5.8709    1.7957    6.9413 H         1 UNK         0.0000 
     82 H82        -5.4462    2.7175    8.3692 H         1 UNK         0.0000 
     83 H83        -2.0750    7.4849    5.6430 H         1 UNK         0.0000 
     84 H84         0.3417    7.1696    6.0603 H         1 UNK         0.0000 
     85 H85         1.1812    4.9892    6.9217 H         1 UNK         0.0000 
     86 H86        -0.3705    3.1731    7.3504 H         1 UNK         0.0000 
     87 H87        -5.7872   -1.2581    3.0723 H         1 UNK         0.0000 
     88 H88        -5.3809    0.4280    3.3107 H         1 UNK         0.0000 
     89 H89        -6.9628   -1.3722    5.2220 H         1 UNK         0.0000 
     90 H90        -6.4552    0.1884    5.7017 H         1 UNK         0.0000 
     91 H91        -8.4428   -0.3231    3.4395 H         1 UNK         0.0000 
     92 H92        -8.8029    0.0693    5.0919 H         1 UNK         0.0000 
     93 H93        -7.8742    1.9867    2.9621 H         1 UNK         0.0000 
     94 H94        -9.2254    2.0389    4.0556 H         1 UNK         0.0000 
     95 H95        -9.7920    4.8797    5.5987 H         1 UNK         0.0000 
     96 H96        -9.0927    4.2716    7.0928 H         1 UNK         0.0000 
     97 H97       -10.8129    2.9634    5.3977 H         1 UNK         0.0000 
     98 H98       -11.0367    3.7161    7.2551 H         1 UNK         0.0000 
     99 H99       -12.6921    2.2544    5.5528 H         1 UNK         0.0000 
    100 H100      -12.6697    3.9156    5.7434 H         1 UNK         0.0000 
    101 H101      -13.4918    3.8602    8.0295 H         1 UNK         0.0000 
    102 H102      -13.0300    2.2109    8.2305 H         1 UNK         0.0000 
    103 H103      -15.0066    1.2725    7.4629 H         1 UNK         0.0000 
    104 H104      -15.2998    2.5048    6.2664 H         1 UNK         0.0000 
    105 H105      -16.5642    3.8939    7.8162 H         1 UNK         0.0000 
    106 H106      -16.0624    3.0656    9.2308 H         1 UNK         0.0000 
    107 H107      -17.6379    1.1211    8.6378 H         1 UNK         0.0000 
    108 H108      -18.1159    1.9262    7.2061 H         1 UNK         0.0000 
    109 H109      -19.3043    3.7169    8.6821 H         1 UNK         0.0000 
    110 H110      -18.8867    2.7946   10.0786 H         1 UNK         0.0000 
    111 H111      -20.4765    0.8946    9.0223 H         1 UNK         0.0000 
    112 H112      -21.0452    2.1352    7.9682 H         1 UNK         0.0000 
    113 H113      -21.7038    3.3141   10.4189 H         1 UNK         0.0000 
    114 H114      -21.6283    1.6667   10.9167 H         1 UNK         0.0000 
    115 H115      -23.6870    2.9101    9.0180 H         1 UNK         0.0000 
    116 H116      -23.5265    1.1949    9.1043 H         1 UNK         0.0000 
    117 H117      -24.4125    2.9515   11.4910 H         1 UNK         0.0000 
    118 H118      -24.3387    1.2262   11.5147 H         1 UNK         0.0000 
    119 H119      -26.2899    1.1198    9.8686 H         1 UNK         0.0000 
    120 H120      -26.3397    2.8473    9.8195 H         1 UNK         0.0000 
    121 H121      -26.9938    1.2216   12.3508 H         1 UNK         0.0000 
    122 H122      -27.1774    2.9364   12.1925 H         1 UNK         0.0000 
    123 H123      -28.8458    0.8039   10.7503 H         1 UNK         0.0000 
    124 H124      -29.0087    2.4948   10.4098 H         1 UNK         0.0000 
    125 H125      -29.8705    2.8829   12.7728 H         1 UNK         0.0000 
    126 H126      -29.6860    1.1881   13.1095 H         1 UNK         0.0000 
    127 H127      -31.3400    0.7244   11.1914 H         1 UNK         0.0000 
    128 H128      -31.6463    2.4203   11.0827 H         1 UNK         0.0000 
    129 H129      -32.1193    1.0923   13.7939 H         1 UNK         0.0000 
    130 H130      -33.1651    0.6570   12.4936 H         1 UNK         0.0000 
    131 H131      -32.8771    3.4989   13.5866 H         1 UNK         0.0000 
    132 H132      -34.2485    2.4260   13.7598 H         1 UNK         0.0000 
    133 H133      -33.8665    3.0791   12.1881 H         1 UNK         0.0000 
    134 Fe134      -5.0049    4.2248    5.1056 Fe        1 UNK         0.0000 
@<TRIPOS>BOND
     1    1    2 1    
     2    1  134 nc   
     3    2    3 1    
     4    2    9 am   BACKBONE|DICT|INTERRES
     5    3    4 1    
     6    3   66 1    
     7    3   67 1    
     8    4    5 1    
     9    4   68 1    
    10    4   69 1    
    11    5    6 1    
    12    5   70 1    
    13    5   71 1    
    14    6    7 1    
    15    6   72 1    
    16    6   73 1    
    17    7    8 1    
    18    7    9 1    
    19    7   11 1    
    20    9   10 2    
    21   10  134 nc   
    22   11   12 am   BACKBONE|DICT|INTERRES
    23   11   74 1    
    24   12   13 2    
    25   12   14 1    
    26   14   15 1    
    27   14   75 1    
    28   14   76 1    
    29   15   16 1    
    30   15   17 1    
    31   15   18 1    
    32   17   77 1    
    33   17   78 1    
    34   17   79 1    
    35   18   19 1    
    36   19   20 2    
    37   19   21 1    
    38   21   22 1    
    39   21   23 1    
    40   21   39 1    
    41   23   24 am   BACKBONE|DICT|INTERRES
    42   23   80 1    
    43   24   25 2    
    44   24   26 1    
    45   26   27 1    
    46   26   28 1    
    47   26   31 1    
    48   28   29 2    
    49   29   30 1    
    50   29   32 1    
    51   30   31 1    
    52   30  134 nc   
    53   31   81 1    
    54   31   82 1    
    55   32   33 ar   
    56   32   38 ar   
    57   33   34 1    
    58   33   35 ar   
    59   34  134 nc   
    60   35   36 ar   
    61   35   83 1    
    62   36   37 ar   
    63   36   84 1    
    64   37   38 ar   
    65   37   85 1    
    66   38   86 1    
    67   39   40 1    
    68   39   87 1    
    69   39   88 1    
    70   40   41 1    
    71   40   89 1    
    72   40   90 1    
    73   41   42 1    
    74   41   91 1    
    75   41   92 1    
    76   42   43 1    
    77   42   93 1    
    78   42   94 1    
    79   43   44 1    
    80   43   45 am   BACKBONE|DICT|INTERRES
    81   44  134 nc   
    82   45   46 2    
    83   45   47 1    
    84   46  134 nc   
    85   47   48 1    
    86   47   95 1    
    87   47   96 1    
    88   48   49 1    
    89   48   97 1    
    90   48   98 1    
    91   49   50 1    
    92   49   99 1    
    93   49  100 1    
    94   50   51 1    
    95   50  101 1    
    96   50  102 1    
    97   51   52 1    
    98   51  103 1    
    99   51  104 1    
   100   52   53 1    
   101   52  105 1    
   102   52  106 1    
   103   53   54 1    
   104   53  107 1    
   105   53  108 1    
   106   54   55 1    
   107   54  109 1    
   108   54  110 1    
   109   55   56 1    
   110   55  111 1    
   111   55  112 1    
   112   56   57 1    
   113   56  113 1    
   114   56  114 1    
   115   57   58 1    
   116   57  115 1    
   117   57  116 1    
   118   58   59 1    
   119   58  117 1    
   120   58  118 1    
   121   59   60 1    
   122   59  119 1    
   123   59  120 1    
   124   60   61 1    
   125   60  121 1    
   126   60  122 1    
   127   61   62 1    
   128   61  123 1    
   129   61  124 1    
   130   62   63 1    
   131   62  125 1    
   132   62  126 1    
   133   63   64 1    
   134   63  127 1    
   135   63  128 1    
   136   64   65 1    
   137   64  129 1    
   138   64  130 1    
   139   65  131 1    
   140   65  132 1    
   141   65  133 1    
@<TRIPOS>SUBSTRUCTURE
     1 UNK         1 GROUP             0       ****    0 ROOT    
