@<TRIPOS>MOLECULE
234_1_c1
53   58    1
SMALL
USER_CHARGES


@<TRIPOS>ATOM
      1 Fe1         0.2076   -0.9970    1.0084 Fe        1 UNK         0.0000 
      2 O2         -1.2449   -0.0009    1.9502 O.co2     1 UNK         0.0000 
      3 C3         -0.9672    1.1895    1.8102 C.2       1 UNK         0.0000 
      4 C4         -2.0798    2.2114    1.5901 C.3       1 UNK         0.0000 
      5 N5          0.3542    1.4418    1.7271 N.am      1 UNK         0.0000 
      6 O6          1.2792    0.5217    2.0941 O.co2     1 UNK         0.0000 
      7 C7          0.9013    2.7443    1.2848 C.3       1 UNK         0.0000 
      8 C8          0.4405    3.3274   -0.1003 C.3       1 UNK         0.0000 
      9 C9          1.1729    2.9156   -1.4101 C.3       1 UNK         0.0000 
     10 N10         0.7489    1.6840   -2.1121 N.am      1 UNK         0.0000 
     11 C11        -0.0445    1.6135   -3.2169 C.2       1 UNK         0.0000 
     12 O12        -0.5577    2.5553   -3.8145 O.2       1 UNK         0.0000 
     13 C13         1.0980    0.4479   -1.7188 C.2       1 UNK         0.0000 
     14 O14         1.1868    0.0152   -0.5721 O.co2     1 UNK         0.0000 
     15 C15         1.0621   -0.4215   -2.9520 C.3       1 UNK         0.0000 
     16 C16        -0.2367    0.0929   -3.5204 C.3       1 UNK         0.0000 
     17 O17        -0.3608   -0.1959   -4.9039 O.3       1 UNK         0.0000 
     18 C18        -1.5870   -0.4266   -2.8601 C.3       1 UNK         0.0000 
     19 C19        -1.4545   -1.6157   -1.8765 C.2       1 UNK         0.0000 
     20 O20        -1.2148   -1.3842   -0.6766 O.co2     1 UNK         0.0000 
     21 N21        -1.5921   -2.8684   -2.3616 N.am      1 UNK         0.0000 
     22 C22        -1.6715   -4.0953   -1.5612 C.3       1 UNK         0.0000 
     23 C23        -0.3508   -4.8967   -1.3197 C.3       1 UNK         0.0000 
     24 C24         0.8788   -4.2954   -0.5647 C.3       1 UNK         0.0000 
     25 N25         0.6972   -3.4656    0.6480 N.am      1 UNK         0.0000 
     26 O26         1.4579   -2.3727    0.6594 O.co2     1 UNK         0.0000 
     27 C27        -0.3535   -3.4603    1.4885 C.2       1 UNK         0.0000 
     28 O28        -0.5819   -2.2914    1.8217 O.co2     1 UNK         0.0000 
     29 C29        -1.2037   -4.6615    1.9073 C.3       1 UNK         0.0000 
     30 H30        -2.3268    2.2914    0.5336 H         1 UNK         0.0000 
     31 H31        -2.9831    1.8827    2.0987 H         1 UNK         0.0000 
     32 H32        -1.8158    3.1952    1.9764 H         1 UNK         0.0000 
     33 H33         0.6762    3.4671    2.0752 H         1 UNK         0.0000 
     34 H34         1.9940    2.7060    1.2804 H         1 UNK         0.0000 
     35 H35         0.7014    4.3847   -0.0079 H         1 UNK         0.0000 
     36 H36        -0.6357    3.3613   -0.2513 H         1 UNK         0.0000 
     37 H37         2.2501    2.8509   -1.2183 H         1 UNK         0.0000 
     38 H38         1.0704    3.7426   -2.1192 H         1 UNK         0.0000 
     39 H39         1.9332   -0.2209   -3.5845 H         1 UNK         0.0000 
     40 H40         1.0884   -1.4833   -2.7093 H         1 UNK         0.0000 
     41 H41        -0.3311   -1.1403   -5.0751 H         1 UNK         0.0000 
     42 H42        -2.0704    0.3664   -2.2756 H         1 UNK         0.0000 
     43 H43        -2.3547   -0.6294   -3.6163 H         1 UNK         0.0000 
     44 H44        -1.7780   -2.9825   -3.3512 H         1 UNK         0.0000 
     45 H45        -2.3838   -4.7673   -2.0513 H         1 UNK         0.0000 
     46 H46        -2.1529   -3.8582   -0.6138 H         1 UNK         0.0000 
     47 H47         0.0193   -5.2642   -2.2845 H         1 UNK         0.0000 
     48 H48        -0.6271   -5.8215   -0.8056 H         1 UNK         0.0000 
     49 H49         1.4267   -3.7135   -1.3154 H         1 UNK         0.0000 
     50 H50         1.5634   -5.0996   -0.2838 H         1 UNK         0.0000 
     51 H51        -0.6173   -5.3089    2.5586 H         1 UNK         0.0000 
     52 H52        -1.5697   -5.2613    1.0791 H         1 UNK         0.0000 
     53 H53        -2.0756   -4.3261    2.4711 H         1 UNK         0.0000 
@<TRIPOS>BOND
     1    1    2 nc   
     2    1    6 nc   
     3    1   14 nc   
     4    1   20 nc   
     5    1   26 nc   
     6    1   28 nc   
     7    2    3 2    
     8    3    4 1    
     9    3    5 am   BACKBONE|DICT|INTERRES
    10    4   31 1    
    11    4   32 1    
    12    4   30 1    
    13    5    6 1    
    14    5    7 1    
    15    7   34 1    
    16    7   33 1    
    17    7    8 1    
    18    8   35 1    
    19    8    9 1    
    20    8   36 1    
    21    9   37 1    
    22    9   10 1    
    23    9   38 1    
    24   10   13 am   BACKBONE|DICT|INTERRES
    25   10   11 am   BACKBONE|DICT|INTERRES
    26   11   12 2    
    27   11   16 1    
    28   13   14 2    
    29   13   15 1    
    30   15   40 1    
    31   15   16 1    
    32   15   39 1    
    33   16   17 1    
    34   16   18 1    
    35   17   41 1    
    36   18   42 1    
    37   18   19 1    
    38   18   43 1    
    39   19   20 2    
    40   19   21 am   BACKBONE|DICT|INTERRES
    41   21   22 1    
    42   21   44 1    
    43   22   23 1    
    44   22   46 1    
    45   22   45 1    
    46   23   48 1    
    47   23   24 1    
    48   23   47 1    
    49   24   50 1    
    50   24   25 1    
    51   24   49 1    
    52   25   26 1    
    53   25   27 am   BACKBONE|DICT|INTERRES
    54   27   28 2    
    55   27   29 1    
    56   29   53 1    
    57   29   51 1    
    58   29   52 1    
@<TRIPOS>SUBSTRUCTURE
     1 UNK         1 GROUP             0       ****    0 ROOT    
