@<TRIPOS>MOLECULE
012_r5_c1
86   90    1
SMALL
USER_CHARGES


@<TRIPOS>ATOM
      1 Fe1         0.4210   -1.0895    0.7984 Fe        1 UNK         0.0000 
      2 C2          3.6651    8.1297   -5.0991 C.3       1 UNK         0.0000 
      3 C3          3.6457    6.6479   -4.7293 C.3       1 UNK         0.0000 
      4 C4          2.8629    6.4230   -3.4332 C.3       1 UNK         0.0000 
      5 C5          2.7968    4.9351   -3.0573 C.3       1 UNK         0.0000 
      6 C6          1.9550    4.7632   -1.7923 C.3       1 UNK         0.0000 
      7 C7          1.7432    3.3211   -1.4094 C.2       1 UNK         0.0000 
      8 C8          0.9098    3.0604   -0.3958 C.2       1 UNK         0.0000 
      9 C9          0.5191    1.6985    0.0421 C.2       1 UNK         0.0000 
     10 O10         0.9425    0.6418   -0.3880 O.co2     1 UNK         0.0000 
     11 N11        -0.4842    1.4273    0.8090 N.am      1 UNK         0.0000 
     12 O12        -0.5795    0.1128    0.5570 O.co2     1 UNK         0.0000 
     13 C13        -1.5432    2.3840    1.1291 C.3       1 UNK         0.0000 
     14 C14        -2.7241    1.9184    2.0047 C.3       1 UNK         0.0000 
     15 C15        -2.4784    1.7394    3.5149 C.3       1 UNK         0.0000 
     16 N16        -2.0753    0.3913    3.8460 N.am      1 UNK         0.0000 
     17 C17        -0.9856    0.0699    4.5960 C.2       1 UNK         0.0000 
     18 O18        -0.2507    0.9465    5.0280 O.2       1 UNK         0.0000 
     19 C19        -0.6764   -1.3844    4.9214 C.3       1 UNK         0.0000 
     20 C20        -0.2975   -2.2047    3.6586 C.3       1 UNK         0.0000 
     21 O21         0.6205   -1.5081    2.8770 O.co2     1 UNK         0.0000 
     22 C22        -1.2983   -2.1919    2.6418 C.2       1 UNK         0.0000 
     23 O23        -0.7912   -1.5075    1.5921 O.co2     1 UNK         0.0000 
     24 O24        -2.4095   -2.6976    2.6753 O.co2     1 UNK         0.0000 
     25 C25         0.1709   -3.6643    3.9451 C.3       1 UNK         0.0000 
     26 C26         1.6375   -3.8832    3.6352 C.2       1 UNK         0.0000 
     27 O27         2.4806   -3.2603    4.2659 O.2       1 UNK         0.0000 
     28 N28         2.0076   -4.7736    2.6701 N.am      1 UNK         0.0000 
     29 C29         3.3895   -5.0569    2.3308 C.3       1 UNK         0.0000 
     30 C30         3.6453   -5.0288    0.8136 C.3       1 UNK         0.0000 
     31 C31         3.5935   -3.6548    0.1105 C.3       1 UNK         0.0000 
     32 N32         2.2762   -3.0506    0.0391 N.am      1 UNK         0.0000 
     33 O33         1.9140   -1.8559    0.4673 O.co2     1 UNK         0.0000 
     34 C34         1.1863   -3.3593   -0.5436 C.2       1 UNK         0.0000 
     35 O35         0.4199   -2.4200   -0.3149 O.co2     1 UNK         0.0000 
     36 C36         0.9685   -4.5628   -1.3705 C.2       1 UNK         0.0000 
     37 C37        -0.1547   -4.8567   -2.0342 C.2       1 UNK         0.0000 
     38 C38        -0.1632   -6.1252   -2.8483 C.3       1 UNK         0.0000 
     39 C39        -1.4593   -6.3561   -3.6249 C.3       1 UNK         0.0000 
     40 C40        -1.3383   -7.6559   -4.4342 C.3       1 UNK         0.0000 
     41 C41        -2.5910   -7.9356   -5.2663 C.3       1 UNK         0.0000 
     42 C42        -2.4319   -9.2290   -6.0629 C.3       1 UNK         0.0000 
     43 H43         2.6293    8.5042   -5.2486 H         1 UNK         0.0000 
     44 H44         4.1521    8.7229   -4.2960 H         1 UNK         0.0000 
     45 H45         4.2321    8.2725   -6.0426 H         1 UNK         0.0000 
     46 H46         3.1659    6.0811   -5.5570 H         1 UNK         0.0000 
     47 H47         4.6892    6.2884   -4.6042 H         1 UNK         0.0000 
     48 H48         3.3425    6.9924   -2.6064 H         1 UNK         0.0000 
     49 H49         1.8274    6.8066   -3.5740 H         1 UNK         0.0000 
     50 H50         3.8194    4.5325   -2.8909 H         1 UNK         0.0000 
     51 H51         2.3169    4.3736   -3.8895 H         1 UNK         0.0000 
     52 H52         2.4250    5.3072   -0.9434 H         1 UNK         0.0000 
     53 H53         0.9530    5.2081   -1.9879 H         1 UNK         0.0000 
     54 H54        -1.1063    3.2939    1.5932 H         1 UNK         0.0000 
     55 H55        -1.9979    2.6881    0.1591 H         1 UNK         0.0000 
     56 H56        -3.4277    2.7796    1.9449 H         1 UNK         0.0000 
     57 H57        -3.2613    1.0487    1.5681 H         1 UNK         0.0000 
     58 H58        -3.4614    1.8806    4.0164 H         1 UNK         0.0000 
     59 H59        -1.7974    2.5244    3.9086 H         1 UNK         0.0000 
     60 H60        -2.7163   -0.3535    3.5452 H         1 UNK         0.0000 
     61 H61        -1.5386   -1.8474    5.4476 H         1 UNK         0.0000 
     62 H62         0.1963   -1.4108    5.6113 H         1 UNK         0.0000 
     63 H63        -0.4172   -4.3831    3.3311 H         1 UNK         0.0000 
     64 H64        -0.0408   -3.9405    5.0004 H         1 UNK         0.0000 
     65 H65         1.2797   -5.3206    2.1856 H         1 UNK         0.0000 
     66 H66         3.6019   -6.0955    2.6659 H         1 UNK         0.0000 
     67 H67         4.1030   -4.3859    2.8566 H         1 UNK         0.0000 
     68 H68         4.6842   -5.4012    0.6751 H         1 UNK         0.0000 
     69 H69         2.9764   -5.7594    0.3193 H         1 UNK         0.0000 
     70 H70         3.9624   -3.7858   -0.9294 H         1 UNK         0.0000 
     71 H71         4.2891   -2.9621    0.6313 H         1 UNK         0.0000 
     72 H72         0.6766   -6.0733   -3.5770 H         1 UNK         0.0000 
     73 H73         0.0126   -6.9862   -2.1647 H         1 UNK         0.0000 
     74 H74        -2.3148   -6.4278   -2.9182 H         1 UNK         0.0000 
     75 H75        -1.6294   -5.5020   -4.3166 H         1 UNK         0.0000 
     76 H76        -0.4640   -7.5789   -5.1198 H         1 UNK         0.0000 
     77 H77        -1.1655   -8.5068   -3.7368 H         1 UNK         0.0000 
     78 H78        -2.7624   -7.0959   -5.9744 H         1 UNK         0.0000 
     79 H79        -3.4727   -8.0279   -4.5962 H         1 UNK         0.0000 
     80 H80        -2.2750  -10.0893   -5.3769 H         1 UNK         0.0000 
     81 H81        -1.5634   -9.1547   -6.7527 H         1 UNK         0.0000 
     82 H82        -3.3464   -9.4151   -6.6634 H         1 UNK         0.0000 
     83 H83        -1.0067   -4.1959   -1.9730 H         1 UNK         0.0000 
     84 H84         1.8133   -5.2342   -1.4148 H         1 UNK         0.0000 
     85 H85         2.2383    2.5106   -1.9236 H         1 UNK         0.0000 
     86 H86         0.4717    3.8724    0.1656 H         1 UNK         0.0000 
@<TRIPOS>BOND
     1    1   10 nc   
     2    1   12 nc   
     3    1   21 nc   
     4    1   23 nc   
     5    1   33 nc   
     6    1   35 nc   
     7    2    3 1    
     8    2   44 1    
     9    2   43 1    
    10    2   45 1    
    11    3   47 1    
    12    3    4 1    
    13    3   46 1    
    14    4    5 1    
    15    4   48 1    
    16    4   49 1    
    17    5   50 1    
    18    5    6 1    
    19    5   51 1    
    20    6    7 1    
    21    6   52 1    
    22    6   53 1    
    23    7    8 2    
    24    7   85 1    
    25    8    9 1    
    26    8   86 1    
    27    9   11 am   BACKBONE|DICT|INTERRES
    28    9   10 2    
    29   11   13 1    
    30   11   12 1    
    31   13   54 1    
    32   13   14 1    
    33   13   55 1    
    34   14   15 1    
    35   14   56 1    
    36   14   57 1    
    37   15   16 1    
    38   15   59 1    
    39   15   58 1    
    40   16   17 am   BACKBONE|DICT|INTERRES
    41   16   60 1    
    42   17   19 1    
    43   17   18 2    
    44   19   61 1    
    45   19   62 1    
    46   19   20 1    
    47   20   21 1    
    48   20   25 1    
    49   20   22 1    
    50   22   24 2    
    51   22   23 1    
    52   25   64 1    
    53   25   26 1    
    54   25   63 1    
    55   26   27 2    
    56   26   28 am   BACKBONE|DICT|INTERRES
    57   28   29 1    
    58   28   65 1    
    59   29   66 1    
    60   29   67 1    
    61   29   30 1    
    62   30   31 1    
    63   30   68 1    
    64   30   69 1    
    65   31   71 1    
    66   31   32 1    
    67   31   70 1    
    68   32   33 1    
    69   32   34 am   BACKBONE|DICT|INTERRES
    70   34   35 2    
    71   34   36 1    
    72   36   37 2    
    73   36   84 1    
    74   37   38 1    
    75   37   83 1    
    76   38   73 1    
    77   38   39 1    
    78   38   72 1    
    79   39   74 1    
    80   39   40 1    
    81   39   75 1    
    82   40   77 1    
    83   40   41 1    
    84   40   76 1    
    85   41   79 1    
    86   41   42 1    
    87   41   78 1    
    88   42   80 1    
    89   42   81 1    
    90   42   82 1    
@<TRIPOS>SUBSTRUCTURE
     1 UNK         1 GROUP             0       ****    0 ROOT    
