@<TRIPOS>MOLECULE
118_c1
99   104    1
SMALL
USER_CHARGES


@<TRIPOS>ATOM
      1 Fe1         0.4905   -0.3333    0.9797 Fe        1 UNK         0.0000 
      2 C2         -1.5506    5.6542    5.6168 C.3       1 UNK         0.0000 
      3 O3         -0.3517    6.1506    6.1763 O.3       1 UNK         0.0000 
      4 C4         -1.5716    4.1176    5.6907 C.3       1 UNK         0.0000 
      5 C5         -0.5363    3.4027    4.8162 C.2       1 UNK         0.0000 
      6 C6          0.9242    3.5979    5.2198 C.3       1 UNK         0.0000 
      7 C7         -0.9735    2.6433    3.7849 C.2       1 UNK         0.0000 
      8 C8         -0.2168    1.8690    2.8273 C.2       1 UNK         0.0000 
      9 O9         -0.6726    0.8158    2.4114 O.co2     1 UNK         0.0000 
     10 N10         1.0088    2.1723    2.3245 N.am      1 UNK         0.0000 
     11 O11         1.7082    1.2288    1.6815 O.co2     1 UNK         0.0000 
     12 C12         1.4169    3.5593    2.0582 C.3       1 UNK         0.0000 
     13 C13         1.3442    3.9624    0.5633 C.3       1 UNK         0.0000 
     14 C14         1.8086    5.4202    0.3411 C.3       1 UNK         0.0000 
     15 C15         1.7574    5.9142   -1.1249 C.3       1 UNK         0.0000 
     16 H16         2.1076    6.9501   -1.0841 H         1 UNK         0.0000 
     17 C17         0.2647    6.0414   -1.5873 C.2       1 UNK         0.0000 
     18 O18        -0.6247    6.6207   -0.9785 O.2       1 UNK         0.0000 
     19 N19        -0.0521    5.4539   -2.7433 N.am      1 UNK         0.0000 
     20 C20         0.8444    4.6529   -3.6023 C.3       1 UNK         0.0000 
     21 H21         0.9249    5.1826   -4.5473 H         1 UNK         0.0000 
     22 C22         2.3451    4.5563   -3.1651 C.2       1 UNK         0.0000 
     23 O23         3.2299    3.9943   -3.7953 O.2       1 UNK         0.0000 
     24 N24         2.6662    5.1662   -2.0213 N.am      1 UNK         0.0000 
     25 C25         0.2825    3.2457   -3.9344 C.3       1 UNK         0.0000 
     26 C26         0.0977    2.3689   -2.6885 C.3       1 UNK         0.0000 
     27 C27        -0.4525    0.9530   -2.9806 C.3       1 UNK         0.0000 
     28 N28        -0.4854    0.1556   -1.7485 N.am      1 UNK         0.0000 
     29 O29         0.6724    0.0921   -1.1117 O.co2     1 UNK         0.0000 
     30 C30        -1.5800   -0.3391   -1.1453 C.2       1 UNK         0.0000 
     31 O31        -1.4151   -0.6592    0.0269 O.co2     1 UNK         0.0000 
     32 C32        -2.7714   -0.6787   -1.8798 C.2       1 UNK         0.0000 
     33 C33        -3.1431   -1.9612   -2.1419 C.2       1 UNK         0.0000 
     34 C34        -4.4603   -2.2668   -2.8503 C.3       1 UNK         0.0000 
     35 C35        -2.2833   -3.1891   -1.8010 C.3       1 UNK         0.0000 
     36 C36        -2.8615   -4.1366   -0.7262 C.3       1 UNK         0.0000 
     37 O37        -1.9188   -5.1388   -0.2956 O.3       1 UNK         0.0000 
     38 C38        -1.4695   -6.1170   -1.1356 C.2       1 UNK         0.0000 
     39 O39        -1.8290   -6.2483   -2.3009 O.2       1 UNK         0.0000 
     40 C40        -0.5623   -7.1412   -0.4045 C.3       1 UNK         0.0000 
     41 H41        -1.1231   -7.4488    0.4798 H         1 UNK         0.0000 
     42 N42        -0.5202   -8.3943   -1.2817 N.4       1 UNK         0.0000 
     43 H43        -1.4696   -8.4612   -1.6399 H         1 UNK         0.0000 
     44 C44         0.4014   -8.3254   -2.5313 C.3       1 UNK         0.0000 
     45 C45        -0.1961   -9.6664   -0.4607 C.3       1 UNK         0.0000 
     46 C46         0.8705   -6.6889    0.0425 C.3       1 UNK         0.0000 
     47 C47         0.9901   -5.5230    1.0314 C.3       1 UNK         0.0000 
     48 C48         1.0951   -4.1621    0.3237 C.3       1 UNK         0.0000 
     49 N49         1.1106   -2.9853    1.1962 N.am      1 UNK         0.0000 
     50 O50         1.6429   -1.8897    0.6551 O.co2     1 UNK         0.0000 
     51 C51         0.1700   -2.6828    2.1356 C.2       1 UNK         0.0000 
     52 O52         0.0300   -1.4661    2.1954 O.co2     1 UNK         0.0000 
     53 C53        -0.8415   -3.5819    2.8140 C.3       1 UNK         0.0000 
     54 H54        -2.3975    6.0779    6.1643 H         1 UNK         0.0000 
     55 H55        -1.6423    6.0078    4.5860 H         1 UNK         0.0000 
     56 H56        -0.3825    6.0062    7.1317 H         1 UNK         0.0000 
     57 H57        -2.5730    3.8065    5.3959 H         1 UNK         0.0000 
     58 H58        -1.4650    3.7815    6.7216 H         1 UNK         0.0000 
     59 H59         1.0698    3.4109    6.2825 H         1 UNK         0.0000 
     60 H60         1.2331    4.6171    4.9958 H         1 UNK         0.0000 
     61 H61         1.6128    2.9471    4.6852 H         1 UNK         0.0000 
     62 H62        -2.0363    2.5193    3.6218 H         1 UNK         0.0000 
     63 H63         0.8319    4.2946    2.6286 H         1 UNK         0.0000 
     64 H64         2.4407    3.6652    2.4282 H         1 UNK         0.0000 
     65 H65         1.9696    3.2910   -0.0336 H         1 UNK         0.0000 
     66 H66         0.3178    3.8393    0.2079 H         1 UNK         0.0000 
     67 H67         1.2402    6.0941    0.9850 H         1 UNK         0.0000 
     68 H68         2.8386    5.5075    0.6914 H         1 UNK         0.0000 
     69 H69        -1.0384    5.5227   -2.9563 H         1 UNK         0.0000 
     70 H70         3.6289    4.9958   -1.7588 H         1 UNK         0.0000 
     71 H71         0.9180    2.7346   -4.6610 H         1 UNK         0.0000 
     72 H72        -0.6848    3.3523   -4.4254 H         1 UNK         0.0000 
     73 H73         1.0752    2.2852   -2.2052 H         1 UNK         0.0000 
     74 H74        -0.5570    2.8617   -1.9658 H         1 UNK         0.0000 
     75 H75         0.2075    0.4323   -3.6803 H         1 UNK         0.0000 
     76 H76        -1.4206    1.0096   -3.4940 H         1 UNK         0.0000 
     77 H77        -3.3422    0.1749   -2.1983 H         1 UNK         0.0000 
     78 H78        -5.0187   -1.3629   -3.0941 H         1 UNK         0.0000 
     79 H79        -4.2987   -2.8116   -3.7792 H         1 UNK         0.0000 
     80 H80        -5.1022   -2.8670   -2.2085 H         1 UNK         0.0000 
     81 H81        -2.1142   -3.7173   -2.7388 H         1 UNK         0.0000 
     82 H82        -1.2886   -2.8790   -1.4758 H         1 UNK         0.0000 
     83 H83        -3.1286   -3.5507    0.1553 H         1 UNK         0.0000 
     84 H84        -3.7705   -4.6198   -1.0816 H         1 UNK         0.0000 
     85 H85         1.4426   -8.3069   -2.1939 H         1 UNK         0.0000 
     86 H86         0.2163   -9.2170   -3.1346 H         1 UNK         0.0000 
     87 H87         0.1829   -7.4305   -3.1183 H         1 UNK         0.0000 
     88 H88        -0.8631   -9.7224    0.4012 H         1 UNK         0.0000 
     89 H89        -0.3328  -10.5334   -1.1071 H         1 UNK         0.0000 
     90 H90         0.8463   -9.6072   -0.1310 H         1 UNK         0.0000 
     91 H91         1.3227   -7.5349    0.5626 H         1 UNK         0.0000 
     92 H92         1.5186   -6.5069   -0.8172 H         1 UNK         0.0000 
     93 H93         0.1632   -5.5792    1.7313 H         1 UNK         0.0000 
     94 H94         1.9027   -5.6514    1.6230 H         1 UNK         0.0000 
     95 H95         1.9850   -4.1710   -0.3191 H         1 UNK         0.0000 
     96 H96         0.2869   -4.0090   -0.3857 H         1 UNK         0.0000 
     97 H97        -1.5034   -2.9402    3.3913 H         1 UNK         0.0000 
     98 H98        -1.4683   -4.0476    2.0631 H         1 UNK         0.0000 
     99 H99        -0.4277   -4.3153    3.4967 H         1 UNK         0.0000 
@<TRIPOS>BOND
     1    1    9 nc   
     2    1   11 nc   
     3    1   29 nc   
     4    1   31 nc   
     5    1   50 nc   
     6    1   52 nc   
     7    2    4 1    
     8    2    3 1    
     9    2   54 1    
    10    2   55 1    
    11    3   56 1    
    12    4   58 1    
    13    4    5 1    
    14    4   57 1    
    15    5    6 1    
    16    5    7 2    
    17    6   59 1    
    18    6   60 1    
    19    6   61 1    
    20    7    8 1    
    21    7   62 1    
    22    8    9 2    
    23    8   10 am   BACKBONE|DICT|INTERRES
    24   10   11 1    
    25   10   12 1    
    26   12   64 1    
    27   12   63 1    
    28   12   13 1    
    29   13   14 1    
    30   13   65 1    
    31   13   66 1    
    32   14   68 1    
    33   14   67 1    
    34   14   15 1    
    35   15   16 1    
    36   15   17 1    
    37   15   24 1    
    38   17   18 2    
    39   17   19 am   BACKBONE|DICT|INTERRES
    40   19   20 1    
    41   19   69 1    
    42   20   21 1    
    43   20   22 1    
    44   20   25 1    
    45   22   24 am   BACKBONE|DICT|INTERRES
    46   22   23 2    
    47   24   70 1    
    48   25   26 1    
    49   25   71 1    
    50   25   72 1    
    51   26   73 1    
    52   26   74 1    
    53   26   27 1    
    54   27   28 1    
    55   27   75 1    
    56   27   76 1    
    57   28   30 am   BACKBONE|DICT|INTERRES
    58   28   29 1    
    59   30   32 1    
    60   30   31 2    
    61   32   33 2    
    62   32   77 1    
    63   33   35 1    
    64   33   34 1    
    65   34   80 1    
    66   34   78 1    
    67   34   79 1    
    68   35   82 1    
    69   35   36 1    
    70   35   81 1    
    71   36   37 1    
    72   36   83 1    
    73   36   84 1    
    74   37   38 1    
    75   38   40 1    
    76   38   39 2    
    77   40   46 1    
    78   40   41 1    
    79   40   42 1    
    80   42   45 1    
    81   42   43 1    
    82   42   44 1    
    83   44   85 1    
    84   44   86 1    
    85   44   87 1    
    86   45   90 1    
    87   45   88 1    
    88   45   89 1    
    89   46   91 1    
    90   46   47 1    
    91   46   92 1    
    92   47   94 1    
    93   47   93 1    
    94   47   48 1    
    95   48   49 1    
    96   48   95 1    
    97   48   96 1    
    98   49   51 am   BACKBONE|DICT|INTERRES
    99   49   50 1    
   100   51   53 1    
   101   51   52 2    
   102   53   97 1    
   103   53   99 1    
   104   53   98 1    
@<TRIPOS>SUBSTRUCTURE
     1 UNK         1 GROUP             0       ****    0 ROOT    
