@<TRIPOS>MOLECULE
027_c1
121   127    1
SMALL
USER_CHARGES


@<TRIPOS>ATOM
      1 Fe1        -8.8824    3.9267   -1.2298 Fe        1 UNK         0.0000 
      2 C2          9.4461   -0.3071   -1.1799 C.ar      1 UNK         0.0000 
      3 C3         10.7950   -0.0072   -1.0538 C.ar      1 UNK         0.0000 
      4 C4         11.6878   -1.0188   -0.7420 C.ar      1 UNK         0.0000 
      5 O5         12.8718   -0.7464   -0.6300 O.2       1 UNK         0.0000 
      6 N6         11.2344   -2.3101   -0.5746 N.pl3     1 UNK         0.0000 
      7 C7         12.1722   -3.4036   -0.2544 C.3       1 UNK         0.0000 
      8 C8          9.8822   -2.5910   -0.7096 C.ar      1 UNK         0.0000 
      9 O9          9.5137   -3.7469   -0.5896 O.2       1 UNK         0.0000 
     10 N10         8.9683   -1.5774   -1.0003 N.pl3     1 UNK         0.0000 
     11 C11         7.4891   -1.7342   -1.1749 C.3       1 UNK         0.0000 
     12 H12         7.2471   -1.4419   -2.2218 H         1 UNK         0.0000 
     13 C13         6.8603   -3.1167   -0.9260 C.3       1 UNK         0.0000 
     14 H14         7.1952   -3.8389   -1.7068 H         1 UNK         0.0000 
     15 O15         7.1870   -3.5917    0.3599 O.3       1 UNK         0.0000 
     16 C16         5.3523   -2.8301   -0.9899 C.3       1 UNK         0.0000 
     17 H17         5.0868   -2.4242   -1.9943 H         1 UNK         0.0000 
     18 O18         4.5944   -3.9802   -0.7202 O.3       1 UNK         0.0000 
     19 S19         6.5329   -0.5836   -0.1019 S.3       1 UNK         0.0000 
     20 C20         5.1156   -1.7471    0.0776 C.3       1 UNK         0.0000 
     21 H21         5.2354   -2.2291    1.0737 H         1 UNK         0.0000 
     22 C22         3.6919   -1.0792    0.0193 C.3       1 UNK         0.0000 
     23 H23         3.5848   -0.5117   -0.9305 H         1 UNK         0.0000 
     24 O24         2.7043   -2.0807    0.0160 O.3       1 UNK         0.0000 
     25 C25         3.4395   -0.1360    1.2361 C.3       1 UNK         0.0000 
     26 H26         3.6926   -0.7374    2.1378 H         1 UNK         0.0000 
     27 C27         4.3422    1.0736    1.2326 C.2       1 UNK         0.0000 
     28 O28         5.2187    1.2671    2.2379 O.3       1 UNK         0.0000 
     29 O29         4.2775    1.8908    0.3260 O.2       1 UNK         0.0000 
     30 N30         2.0556    0.3469    1.3476 N.am      1 UNK         0.0000 
     31 C31         1.2395   -0.0479    2.3742 C.2       1 UNK         0.0000 
     32 O32         1.5514   -1.0127    3.0591 O.2       1 UNK         0.0000 
     33 C33         0.0157    0.7522    2.8219 C.3       1 UNK         0.0000 
     34 H34        -0.3998    0.2102    3.7008 H         1 UNK         0.0000 
     35 C35         0.4751    2.1046    3.3885 C.3       1 UNK         0.0000 
     36 O36         1.0337    2.9091    2.3874 O.3       1 UNK         0.0000 
     37 N37        -1.0374    0.9806    1.8256 N.am      1 UNK         0.0000 
     38 C38        -2.3543    0.6846    2.0945 C.2       1 UNK         0.0000 
     39 O39        -2.6408    0.0750    3.1166 O.2       1 UNK         0.0000 
     40 C40        -3.5375    1.1307    1.2336 C.3       1 UNK         0.0000 
     41 H41        -4.1603    1.7551    1.8907 H         1 UNK         0.0000 
     42 C42        -3.1737    2.0212   -0.0150 C.3       1 UNK         0.0000 
     43 C43        -4.4798    2.6423   -0.5369 C.3       1 UNK         0.0000 
     44 C44        -4.6659    3.0286   -2.0382 C.3       1 UNK         0.0000 
     45 N45        -6.1127    3.1199   -2.2814 N.am      1 UNK         0.0000 
     46 O46        -6.8806    4.1622   -1.9647 O.co2     1 UNK         0.0000 
     47 C47        -6.8585    2.0861   -2.0071 C.2       1 UNK         0.0000 
     48 O48        -7.8191    2.4474   -1.3367 O.co2     1 UNK         0.0000 
     49 C49        -6.4440    0.6482   -2.2860 C.3       1 UNK         0.0000 
     50 N50        -4.2380   -0.0758    0.7689 N.am      1 UNK         0.0000 
     51 C51        -5.5056   -0.6059    0.9806 C.2       1 UNK         0.0000 
     52 O52        -5.7279   -1.6644    0.4068 O.2       1 UNK         0.0000 
     53 C53        -6.7156   -0.1403    1.8454 C.3       1 UNK         0.0000 
     54 H54        -6.8215   -0.9722    2.5774 H         1 UNK         0.0000 
     55 C55        -6.6519    1.1344    2.7415 C.3       1 UNK         0.0000 
     56 C56        -7.0395    2.4961    2.0933 C.3       1 UNK         0.0000 
     57 C57        -8.5625    2.8590    2.1911 C.3       1 UNK         0.0000 
     58 N58        -9.0082    3.9750    1.3385 N.am      1 UNK         0.0000 
     59 O59       -10.0500    3.8581    0.4799 O.co2     1 UNK         0.0000 
     60 C60        -8.3568    5.0795    0.9823 C.2       1 UNK         0.0000 
     61 O61        -8.8581    5.5248   -0.0557 O.co2     1 UNK         0.0000 
     62 C62        -7.0492    5.5979    1.5051 C.3       1 UNK         0.0000 
     63 N63        -7.8925   -0.0834    0.9749 N.am      1 UNK         0.0000 
     64 C64        -9.0059   -0.8827    1.0707 C.2       1 UNK         0.0000 
     65 O65        -9.0834   -1.7030    1.9737 O.2       1 UNK         0.0000 
     66 C66       -10.1992   -0.7795    0.0908 C.3       1 UNK         0.0000 
     67 H67       -10.3663   -1.7951   -0.3334 H         1 UNK         0.0000 
     68 N68       -11.3886   -0.3817    0.8390 N.3       1 UNK         0.0000 
     69 C69        -9.9389    0.1752   -1.1054 C.3       1 UNK         0.0000 
     70 C70       -11.0326    0.3549   -2.1804 C.3       1 UNK         0.0000 
     71 C71       -10.5770    1.2325   -3.3991 C.3       1 UNK         0.0000 
     72 N72       -10.2123    2.5949   -3.0275 N.am      1 UNK         0.0000 
     73 O73       -10.0664    3.1175   -1.8114 O.co2     1 UNK         0.0000 
     74 C74        -9.8469    3.6600   -3.6278 C.2       1 UNK         0.0000 
     75 O75        -9.6204    4.4498   -2.6901 O.co2     1 UNK         0.0000 
     76 C76        -9.6394    3.8901   -5.0891 C.3       1 UNK         0.0000 
     77 H77         8.7768    0.5081   -1.4280 H         1 UNK         0.0000 
     78 H78        11.1395    1.0095   -1.1977 H         1 UNK         0.0000 
     79 H79        13.2244   -3.0586   -0.1735 H         1 UNK         0.0000 
     80 H80        11.8949   -3.8641    0.7171 H         1 UNK         0.0000 
     81 H81        12.1341   -4.1769   -1.0501 H         1 UNK         0.0000 
     82 H82         6.9704   -4.5604    0.3718 H         1 UNK         0.0000 
     83 H83         4.7322   -4.5947   -1.4875 H         1 UNK         0.0000 
     84 H84         2.7985   -2.6035    0.8558 H         1 UNK         0.0000 
     85 H85         1.7539    1.1151    0.7277 H         1 UNK         0.0000 
     86 H86         1.2265    1.9193    4.1916 H         1 UNK         0.0000 
     87 H87        -0.4048    2.6225    3.8301 H         1 UNK         0.0000 
     88 H88         1.3916    3.7108    2.8498 H         1 UNK         0.0000 
     89 H89        -0.7872    1.4940    0.9696 H         1 UNK         0.0000 
     90 H90        -2.4802    2.8559    0.2206 H         1 UNK         0.0000 
     91 H91        -2.7034    1.3652   -0.7788 H         1 UNK         0.0000 
     92 H92        -5.1925    1.8395   -0.3590 H         1 UNK         0.0000 
     93 H93        -4.7998    3.4725    0.1221 H         1 UNK         0.0000 
     94 H94        -4.2463    2.2189   -2.6742 H         1 UNK         0.0000 
     95 H95        -4.1417    3.9711   -2.3015 H         1 UNK         0.0000 
     96 H96        -7.0840   -0.1023   -1.8212 H         1 UNK         0.0000 
     97 H97        -6.4509    0.4895   -3.3844 H         1 UNK         0.0000 
     98 H98        -5.4261    0.4016   -1.9316 H         1 UNK         0.0000 
     99 H99        -3.6423   -0.6463    0.1451 H         1 UNK         0.0000 
    100 H100       -7.3459    1.0091    3.6014 H         1 UNK         0.0000 
    101 H101       -5.6549    1.1504    3.2178 H         1 UNK         0.0000 
    102 H102       -6.5097    3.2720    2.6778 H         1 UNK         0.0000 
    103 H103       -6.6856    2.5143    1.0552 H         1 UNK         0.0000 
    104 H104       -9.1554    1.9736    1.8829 H         1 UNK         0.0000 
    105 H105       -8.8192    3.0593    3.2505 H         1 UNK         0.0000 
    106 H106       -6.2308    4.8936    1.2712 H         1 UNK         0.0000 
    107 H107       -7.1069    5.7895    2.5944 H         1 UNK         0.0000 
    108 H108       -6.7837    6.5388    0.9788 H         1 UNK         0.0000 
    109 H109       -7.8374    0.6136    0.2338 H         1 UNK         0.0000 
    110 H110      -11.2814    0.6014    1.1865 H         1 UNK         0.0000 
    111 H111      -12.2374   -0.4426    0.2351 H         1 UNK         0.0000 
    112 H112       -9.0865   -0.2406   -1.6452 H         1 UNK         0.0000 
    113 H113       -9.7195    1.1530   -0.6642 H         1 UNK         0.0000 
    114 H114      -11.9378    0.8054   -1.7230 H         1 UNK         0.0000 
    115 H115      -11.3067   -0.6486   -2.5715 H         1 UNK         0.0000 
    116 H116      -11.4248    1.2763   -4.1145 H         1 UNK         0.0000 
    117 H117       -9.7130    0.7541   -3.9097 H         1 UNK         0.0000 
    118 H118       -9.8768    2.9703   -5.6634 H         1 UNK         0.0000 
    119 H119       -8.5752    4.1554   -5.2654 H         1 UNK         0.0000 
    120 H120      -10.2871    4.7201   -5.4358 H         1 UNK         0.0000 
    121 H121        5.7111    2.0764    2.0824 H         1 UNK         0.0000 
@<TRIPOS>BOND
     1    1   46 nc   
     2    1   48 nc   
     3    1   59 nc   
     4    1   61 nc   
     5    1   73 nc   
     6    1   75 nc   
     7    2    3 ar   
     8    2   10 ar   
     9    2   77 1    
    10    3    4 ar   
    11    3   78 1    
    12    4    5 2    
    13    4    6 ar   
    14    6    7 1    
    15    6    8 ar   
    16    7   79 1    
    17    7   80 1    
    18    7   81 1    
    19    8    9 2    
    20    8   10 ar   
    21   10   11 1    
    22   11   12 1    
    23   11   13 1    
    24   11   19 1    
    25   13   14 1    
    26   13   15 1    
    27   13   16 1    
    28   15   82 1    
    29   16   17 1    
    30   16   18 1    
    31   16   20 1    
    32   18   83 1    
    33   19   20 1    
    34   20   21 1    
    35   20   22 1    
    36   22   23 1    
    37   22   25 1    
    38   22   24 1    
    39   24   84 1    
    40   25   30 1    
    41   25   26 1    
    42   25   27 1    
    43   27   28 1    
    44   27   29 2    
    45   28  121 1    
    46   30   31 am   BACKBONE|DICT|INTERRES
    47   30   85 1    
    48   31   33 1    
    49   31   32 2    
    50   33   35 1    
    51   33   34 1    
    52   33   37 1    
    53   35   87 1    
    54   35   86 1    
    55   35   36 1    
    56   36   88 1    
    57   37   38 am   BACKBONE|DICT|INTERRES
    58   37   89 1    
    59   38   39 2    
    60   38   40 1    
    61   40   41 1    
    62   40   42 1    
    63   40   50 1    
    64   42   90 1    
    65   42   43 1    
    66   42   91 1    
    67   43   92 1    
    68   43   93 1    
    69   43   44 1    
    70   44   45 1    
    71   44   94 1    
    72   44   95 1    
    73   45   47 am   BACKBONE|DICT|INTERRES
    74   45   46 1    
    75   47   49 1    
    76   47   48 2    
    77   49   98 1    
    78   49   96 1    
    79   49   97 1    
    80   50   51 am   BACKBONE|DICT|INTERRES
    81   50   99 1    
    82   51   53 1    
    83   51   52 2    
    84   53   54 1    
    85   53   55 1    
    86   53   63 1    
    87   55  101 1    
    88   55  100 1    
    89   55   56 1    
    90   56   57 1    
    91   56  102 1    
    92   56  103 1    
    93   57  105 1    
    94   57   58 1    
    95   57  104 1    
    96   58   59 1    
    97   58   60 am   BACKBONE|DICT|INTERRES
    98   60   62 1    
    99   60   61 2    
   100   62  107 1    
   101   62  106 1    
   102   62  108 1    
   103   63   64 am   BACKBONE|DICT|INTERRES
   104   63  109 1    
   105   64   65 2    
   106   64   66 1    
   107   66   67 1    
   108   66   68 1    
   109   66   69 1    
   110   68  110 1    
   111   68  111 1    
   112   69  113 1    
   113   69   70 1    
   114   69  112 1    
   115   70  114 1    
   116   70   71 1    
   117   70  115 1    
   118   71   72 1    
   119   71  116 1    
   120   71  117 1    
   121   72   73 1    
   122   72   74 am   BACKBONE|DICT|INTERRES
   123   74   76 1    
   124   74   75 2    
   125   76  118 1    
   126   76  119 1    
   127   76  120 1    
@<TRIPOS>SUBSTRUCTURE
     1 UNK         1 GROUP             0       ****    0 ROOT    
