@<TRIPOS>MOLECULE
274_c1
58   63    1
SMALL
USER_CHARGES


@<TRIPOS>ATOM
      1 Fe1         0.0312    0.0013   -0.0321 Fe        1 UNK         0.0000 
      2 C2          3.6693    5.6399   -0.2225 C.3       1 UNK         0.0000 
      3 N3          3.1442    4.2858   -0.0441 N.pl3     1 UNK         0.0000 
      4 C4          1.7942    3.8971   -0.0339 C.2       1 UNK         0.0000 
      5 C5          0.7219    4.9926   -0.0499 C.3       1 UNK         0.0000 
      6 C6          1.4477    2.5693   -0.0240 C.2       1 UNK         0.0000 
      7 O7          0.1866    2.2881    0.0435 O.co2     1 UNK         0.0000 
      8 C8          2.4933    1.5357   -0.0463 C.2       1 UNK         0.0000 
      9 O9          2.2807    0.2610   -0.1359 O.co2     1 UNK         0.0000 
     10 C10         3.7820    1.8914    0.0362 C.2       1 UNK         0.0000 
     11 C11         4.2402    3.3343    0.2313 C.3       1 UNK         0.0000 
     12 H12         2.9399    6.4268   -0.3892 H         1 UNK         0.0000 
     13 H13         4.2283    5.9079    0.6730 H         1 UNK         0.0000 
     14 H14         4.3479    5.6685   -1.0758 H         1 UNK         0.0000 
     15 H15         1.0285    6.0221   -0.0935 H         1 UNK         0.0000 
     16 H16         0.0805    4.8191   -0.9095 H         1 UNK         0.0000 
     17 H17         0.0797    4.8921    0.8211 H         1 UNK         0.0000 
     18 H18         5.0702    3.5321   -0.4349 H         1 UNK         0.0000 
     19 C19         0.1626   -5.5433    3.7814 C.3       1 UNK         0.0000 
     20 N20         0.2293   -4.1990    3.2212 N.pl3     1 UNK         0.0000 
     21 C21        -0.2965   -3.9369    1.8418 C.3       1 UNK         0.0000 
     22 C22         0.1920   -4.9590    0.7740 C.3       1 UNK         0.0000 
     23 C23        -0.0199   -2.4417    1.4609 C.2       1 UNK         0.0000 
     24 O24         0.0582   -2.2716    0.1769 O.co2     1 UNK         0.0000 
     25 C25         0.0281   -1.4723    2.4217 C.2       1 UNK         0.0000 
     26 O26         0.0423   -0.1978    2.2196 O.co2     1 UNK         0.0000 
     27 C27         0.0942   -1.8705    3.8042 C.2       1 UNK         0.0000 
     28 C28         0.2275   -3.1603    4.1495 C.2       1 UNK         0.0000 
     29 H29         0.3161   -6.3268    3.0473 H         1 UNK         0.0000 
     30 H30         0.9496   -5.6636    4.5239 H         1 UNK         0.0000 
     31 H31        -0.7989   -5.7073    4.2667 H         1 UNK         0.0000 
     32 H32         0.1081   -6.0019    1.0398 H         1 UNK         0.0000 
     33 H33        -0.4003   -4.8485   -0.1346 H         1 UNK         0.0000 
     34 H34         1.2172   -4.7590    0.4716 H         1 UNK         0.0000 
     35 H35         0.0956   -1.0961    4.5551 H         1 UNK         0.0000 
     36 H36         0.3401   -3.4412    5.1782 H         1 UNK         0.0000 
     37 C37        -5.4922   -0.0408   -3.8441 C.3       1 UNK         0.0000 
     38 N38        -4.1540    0.0825   -3.2755 N.pl3     1 UNK         0.0000 
     39 C39        -3.8829   -0.4036   -1.8838 C.3       1 UNK         0.0000 
     40 C40        -4.9225    0.0921   -0.8325 C.3       1 UNK         0.0000 
     41 C41        -2.3889   -0.1102   -1.5032 C.2       1 UNK         0.0000 
     42 O42        -2.2339   -0.0155   -0.2219 O.co2     1 UNK         0.0000 
     43 C43        -1.4145   -0.0697   -2.4720 C.2       1 UNK         0.0000 
     44 O44        -0.1413   -0.0406   -2.2808 O.co2     1 UNK         0.0000 
     45 C45        -1.8241   -0.0288   -3.8540 C.2       1 UNK         0.0000 
     46 C46        -3.1148    0.0827   -4.2029 C.2       1 UNK         0.0000 
     47 H47        -6.2866    0.1073   -3.1208 H         1 UNK         0.0000 
     48 H48        -5.6347    0.7179   -4.6126 H         1 UNK         0.0000 
     49 H49        -5.6218   -1.0207   -4.3023 H         1 UNK         0.0000 
     50 H50        -5.9623   -0.0253   -1.0992 H         1 UNK         0.0000 
     51 H51        -4.8049   -0.4748    0.0897 H         1 UNK         0.0000 
     52 H52        -4.7528    1.1284   -0.5533 H         1 UNK         0.0000 
     53 H53        -1.0575   -0.0243   -4.6130 H         1 UNK         0.0000 
     54 H54        -3.3993    0.1816   -5.2343 H         1 UNK         0.0000 
     55 H55        -1.3839   -4.0072    1.8888 H         1 UNK         0.0000 
     56 H56        -3.9429   -1.4914   -1.9076 H         1 UNK         0.0000 
     57 H57         4.5185    1.1075    0.0167 H         1 UNK         0.0000 
     58 H58         4.5786    3.4537    1.2570 H         1 UNK         0.0000 
@<TRIPOS>BOND
     1    1    7 nc   
     2    1    9 nc   
     3    1   24 nc   
     4    1   26 nc   
     5    1   42 nc   
     6    1   44 nc   
     7    2    3 1    
     8    2   13 1    
     9    2   12 1    
    10    2   14 1    
    11    3   11 1    
    12    3    4 1    
    13    4    5 1    
    14    4    6 2    
    15    5   17 1    
    16    5   15 1    
    17    5   16 1    
    18    6    8 1    
    19    6    7 1    
    20    8    9 1    
    21    8   10 2    
    22   10   11 1    
    23   10   57 1    
    24   11   18 1    
    25   11   58 1    
    26   19   30 1    
    27   19   31 1    
    28   19   20 1    
    29   19   29 1    
    30   20   28 1    
    31   20   21 1    
    32   21   22 1    
    33   21   23 1    
    34   21   55 1    
    35   22   32 1    
    36   22   33 1    
    37   22   34 1    
    38   23   25 2    
    39   23   24 1    
    40   25   27 1    
    41   25   26 1    
    42   27   28 2    
    43   27   35 1    
    44   28   36 1    
    45   37   38 1    
    46   37   47 1    
    47   37   48 1    
    48   37   49 1    
    49   38   39 1    
    50   38   46 1    
    51   39   41 1    
    52   39   40 1    
    53   39   56 1    
    54   40   52 1    
    55   40   51 1    
    56   40   50 1    
    57   41   42 1    
    58   41   43 2    
    59   43   44 1    
    60   43   45 1    
    61   45   46 2    
    62   45   53 1    
    63   46   54 1    
@<TRIPOS>SUBSTRUCTURE
     1 UNK         1 GROUP             0       ****    0 ROOT    
