@<TRIPOS>MOLECULE
176_c1
110   114    1
SMALL
USER_CHARGES


@<TRIPOS>ATOM
      1 Fe1        -0.2427   -0.7260   -0.6444 Fe        1 UNK         0.0000 
      2 O2          4.0276    4.8628   -3.6393 O.3       1 UNK         0.0000 
      3 C3          3.5046    4.6185   -4.8791 C.2       1 UNK         0.0000 
      4 O4          4.1276    4.1403   -5.8152 O.2       1 UNK         0.0000 
      5 C5          2.0703    5.1779   -5.0935 C.3       1 UNK         0.0000 
      6 H6          1.8497    5.9392   -4.3426 H         1 UNK         0.0000 
      7 N7          2.1549    5.9196   -6.4074 N.4       1 UNK         0.0000 
      8 H8          2.8287    6.6765   -6.3589 H         1 UNK         0.0000 
      9 H9          1.2501    6.2841   -6.6689 H         1 UNK         0.0000 
     10 H10         2.4741    5.2578   -7.1067 H         1 UNK         0.0000 
     11 C11         0.9799    4.0753   -5.1167 C.3       1 UNK         0.0000 
     12 C12         0.8178    3.2913   -3.7862 C.3       1 UNK         0.0000 
     13 C13        -0.3577    2.2900   -3.8094 C.3       1 UNK         0.0000 
     14 N14        -0.5364    1.5876   -2.5192 N.pl3     1 UNK         0.0000 
     15 O15         0.4209    0.7176   -2.2168 O.co2     1 UNK         0.0000 
     16 C16        -1.5386    1.7399   -1.6201 C.1       1 UNK         0.0000 
     17 O17        -1.4872    0.8814   -0.7316 O.co2     1 UNK         0.0000 
     18 C18        -2.6924    2.5675   -1.9154 C.2       1 UNK         0.0000 
     19 C19        -3.6273    3.1050   -0.8188 C.3       1 UNK         0.0000 
     20 C20        -5.0120    3.5450   -1.3400 C.3       1 UNK         0.0000 
     21 C21        -3.7441    2.2800    0.5023 C.3       1 UNK         0.0000 
     22 C22        -2.6365    2.6798    1.4946 C.3       1 UNK         0.0000 
     23 O23        -2.3402    1.6444    2.4135 O.3       1 UNK         0.0000 
     24 C24        -1.7081    1.9168    3.5678 C.2       1 UNK         0.0000 
     25 O25        -1.4881    3.0395    4.0294 O.2       1 UNK         0.0000 
     26 C26        -1.3279    0.6500    4.3110 C.3       1 UNK         0.0000 
     27 H27        -1.9031   -0.2059    3.9522 H         1 UNK         0.0000 
     28 N28        -1.7924    0.9109    5.7138 N.4       1 UNK         0.0000 
     29 H29        -2.7831    1.1088    5.7202 H         1 UNK         0.0000 
     30 H30        -1.2906    1.7322    6.0237 H         1 UNK         0.0000 
     31 H31        -1.5703    0.1131    6.2876 H         1 UNK         0.0000 
     32 C32         0.2020    0.4000    4.2623 C.3       1 UNK         0.0000 
     33 C33         0.6037   -1.0637    4.5341 C.3       1 UNK         0.0000 
     34 C34         0.0425   -2.0842    3.5178 C.3       1 UNK         0.0000 
     35 N35         0.2521   -1.6865    2.1130 N.am      1 UNK         0.0000 
     36 O36        -0.6908   -0.9166    1.5704 O.co2     1 UNK         0.0000 
     37 C37         1.4013   -1.8476    1.4225 C.2       1 UNK         0.0000 
     38 O38         1.4967   -1.1148    0.4358 O.co2     1 UNK         0.0000 
     39 C39         2.3588   -2.8796    1.7489 C.2       1 UNK         0.0000 
     40 C40         2.1107   -4.2054    1.9207 C.2       1 UNK         0.0000 
     41 C41         3.2804   -5.1198    2.2722 C.3       1 UNK         0.0000 
     42 C42         0.7427   -4.9109    1.7969 C.3       1 UNK         0.0000 
     43 C43         0.6962   -6.0825    0.7819 C.3       1 UNK         0.0000 
     44 O44        -0.6050   -6.2160    0.2060 O.3       1 UNK         0.0000 
     45 C45        -1.5235   -7.1132    0.6171 C.2       1 UNK         0.0000 
     46 O46        -1.3298   -7.9860    1.4638 O.2       1 UNK         0.0000 
     47 C47        -2.8418   -6.9690   -0.1665 C.3       1 UNK         0.0000 
     48 H48        -2.6415   -7.0753   -1.2328 H         1 UNK         0.0000 
     49 N49        -3.6588   -8.1862    0.1944 N.4       1 UNK         0.0000 
     50 H50        -4.5243   -8.1906   -0.3306 H         1 UNK         0.0000 
     51 H51        -3.8499   -8.1502    1.1893 H         1 UNK         0.0000 
     52 H52        -3.1195   -9.0263    0.0171 H         1 UNK         0.0000 
     53 C53        -3.6228   -5.6503    0.1026 C.3       1 UNK         0.0000 
     54 C54        -2.8749   -4.3256   -0.1671 C.3       1 UNK         0.0000 
     55 C55        -2.2424   -4.1559   -1.5856 C.3       1 UNK         0.0000 
     56 N56        -1.2552   -3.0697   -1.6476 N.am      1 UNK         0.0000 
     57 O57        -1.7199   -1.9285   -1.1014 O.co2     1 UNK         0.0000 
     58 C58         0.0858   -3.0409   -1.9879 C.2       1 UNK         0.0000 
     59 O59         0.5168   -1.9355   -1.6497 O.co2     1 UNK         0.0000 
     60 C60         1.0602   -3.9917   -2.4749 C.2       1 UNK         0.0000 
     61 C61         1.1140   -5.2556   -2.9738 C.2       1 UNK         0.0000 
     62 C62         2.5237   -5.7339   -3.3363 C.3       1 UNK         0.0000 
     63 C63        -0.0500   -6.2169   -3.2197 C.3       1 UNK         0.0000 
     64 C64         0.2023   -7.5416   -3.9816 C.3       1 UNK         0.0000 
     65 O65         0.9609   -8.4529   -3.1975 O.3       1 UNK         0.0000 
     66 H66         0.0202    4.5305   -5.3714 H         1 UNK         0.0000 
     67 H67         1.1838    3.3615   -5.9165 H         1 UNK         0.0000 
     68 H68         0.6506    3.9892   -2.9626 H         1 UNK         0.0000 
     69 H69         1.7296    2.7284   -3.5649 H         1 UNK         0.0000 
     70 H70        -0.2100    1.5453   -4.5972 H         1 UNK         0.0000 
     71 H71        -1.2471    2.8123   -4.1459 H         1 UNK         0.0000 
     72 H72        -2.8498    2.8583   -2.9388 H         1 UNK         0.0000 
     73 H73        -4.9259    4.1006   -2.2720 H         1 UNK         0.0000 
     74 H74        -5.6968    2.7087   -1.4914 H         1 UNK         0.0000 
     75 H75        -5.4797    4.2211   -0.6244 H         1 UNK         0.0000 
     76 H76        -4.6986    2.4638    1.0059 H         1 UNK         0.0000 
     77 H77        -3.7411    1.2014    0.3114 H         1 UNK         0.0000 
     78 H78        -2.9331    3.5944    2.0080 H         1 UNK         0.0000 
     79 H79        -1.7073    2.8928    0.9698 H         1 UNK         0.0000 
     80 H80         0.7316    1.0671    4.9458 H         1 UNK         0.0000 
     81 H81         0.6023    0.6639    3.2790 H         1 UNK         0.0000 
     82 H82         1.6928   -1.1386    4.4952 H         1 UNK         0.0000 
     83 H83         0.3377   -1.3659    5.5476 H         1 UNK         0.0000 
     84 H84         0.4999   -3.0481    3.7304 H         1 UNK         0.0000 
     85 H85        -1.0302   -2.2410    3.6685 H         1 UNK         0.0000 
     86 H86         3.3647   -2.4997    1.8364 H         1 UNK         0.0000 
     87 H87         2.9708   -6.1407    2.5057 H         1 UNK         0.0000 
     88 H88         3.9882   -5.1792    1.4400 H         1 UNK         0.0000 
     89 H89         3.8233   -4.7435    3.1430 H         1 UNK         0.0000 
     90 H90        -0.0320   -4.1912    1.5301 H         1 UNK         0.0000 
     91 H91         0.4598   -5.2862    2.7845 H         1 UNK         0.0000 
     92 H92         1.0377   -7.0209    1.2261 H         1 UNK         0.0000 
     93 H93         1.3915   -5.8592   -0.0313 H         1 UNK         0.0000 
     94 H94        -4.5388   -5.6471   -0.4921 H         1 UNK         0.0000 
     95 H95        -3.9649   -5.6244    1.1361 H         1 UNK         0.0000 
     96 H96        -3.5823   -3.5064   -0.0026 H         1 UNK         0.0000 
     97 H97        -2.1126   -4.1723    0.5966 H         1 UNK         0.0000 
     98 H98        -3.0239   -3.9611   -2.3309 H         1 UNK         0.0000 
     99 H99        -1.7938   -5.0693   -1.8905 H         1 UNK         0.0000 
    100 H100        2.5829   -6.6844   -3.8658 H         1 UNK         0.0000 
    101 H101        3.0095   -5.0044   -3.9879 H         1 UNK         0.0000 
    102 H102        3.1398   -5.8361   -2.4393 H         1 UNK         0.0000 
    103 H103       -0.8336   -5.6644   -3.7409 H         1 UNK         0.0000 
    104 H104       -0.4265   -6.5205   -2.2508 H         1 UNK         0.0000 
    105 H105        0.7086   -7.3580   -4.9328 H         1 UNK         0.0000 
    106 H106       -0.7514   -8.0172   -4.2320 H         1 UNK         0.0000 
    107 H107        0.5149   -8.6645   -2.3769 H         1 UNK         0.0000 
    108 H108        3.4591    5.2119   -2.9543 H         1 UNK         0.0000 
    109 H109       -3.1259    4.0524   -0.5942 H         1 UNK         0.0000 
    110 H110        2.0296   -3.5206   -2.3965 H         1 UNK         0.0000 
@<TRIPOS>BOND
     1    1   15 nc   
     2    1   17 nc   
     3    1   36 nc   
     4    1   38 nc   
     5    1   57 nc   
     6    1   59 nc   
     7    2    3 1    
     8    2  108 1    
     9    3    4 2    
    10    3    5 1    
    11    5    6 1    
    12    5    7 1    
    13    5   11 1    
    14    7    8 1    
    15    7    9 1    
    16    7   10 1    
    17   11   12 1    
    18   11   66 1    
    19   11   67 1    
    20   12   69 1    
    21   12   68 1    
    22   12   13 1    
    23   13   14 1    
    24   13   70 1    
    25   13   71 1    
    26   14   15 1    
    27   14   16 1    
    28   16   17 2    
    29   16   18 2    
    30   18   19 1    
    31   18   72 1    
    32   19   20 1    
    33   19   21 1    
    34   19  109 1    
    35   20   74 1    
    36   20   75 1    
    37   20   73 1    
    38   21   76 1    
    39   21   22 1    
    40   21   77 1    
    41   22   78 1    
    42   22   23 1    
    43   22   79 1    
    44   23   24 1    
    45   24   25 2    
    46   24   26 1    
    47   26   27 1    
    48   26   28 1    
    49   26   32 1    
    50   28   29 1    
    51   28   30 1    
    52   28   31 1    
    53   32   33 1    
    54   32   80 1    
    55   32   81 1    
    56   33   83 1    
    57   33   34 1    
    58   33   82 1    
    59   34   85 1    
    60   34   84 1    
    61   34   35 1    
    62   35   36 1    
    63   35   37 am   BACKBONE|DICT|INTERRES
    64   37   38 2    
    65   37   39 1    
    66   39   40 2    
    67   39   86 1    
    68   40   41 1    
    69   40   42 1    
    70   41   87 1    
    71   41   89 1    
    72   41   88 1    
    73   42   91 1    
    74   42   43 1    
    75   42   90 1    
    76   43   92 1    
    77   43   44 1    
    78   43   93 1    
    79   44   45 1    
    80   45   46 2    
    81   45   47 1    
    82   47   48 1    
    83   47   53 1    
    84   47   49 1    
    85   49   51 1    
    86   49   50 1    
    87   49   52 1    
    88   53   95 1    
    89   53   54 1    
    90   53   94 1    
    91   54   96 1    
    92   54   97 1    
    93   54   55 1    
    94   55   56 1    
    95   55   98 1    
    96   55   99 1    
    97   56   57 1    
    98   56   58 am   BACKBONE|DICT|INTERRES
    99   58   59 2    
   100   58   60 1    
   101   60   61 2    
   102   60  110 1    
   103   61   62 1    
   104   61   63 1    
   105   62  102 1    
   106   62  100 1    
   107   62  101 1    
   108   63  104 1    
   109   63   64 1    
   110   63  103 1    
   111   64   65 1    
   112   64  105 1    
   113   64  106 1    
   114   65  107 1    
@<TRIPOS>SUBSTRUCTURE
     1 UNK         1 GROUP             0       ****    0 ROOT    
