@<TRIPOS>MOLECULE
113_c1
102   108    1
SMALL
USER_CHARGES


@<TRIPOS>ATOM
      1 C1         -3.4868    3.3963    2.4252 C.ar      1 UNK         0.0000 
      2 C2         -2.9793    3.1647    3.6978 C.ar      1 UNK         0.0000 
      3 C3         -1.6932    2.6584    3.8571 C.ar      1 UNK         0.0000 
      4 C4         -0.9033    2.3935    2.7428 C.ar      1 UNK         0.0000 
      5 O5          0.3221    1.7999    2.9568 O.co2     1 UNK         0.0000 
      6 C6         -1.3915    2.6411    1.4225 C.ar      1 UNK         0.0000 
      7 O7         -0.5907    2.3296    0.2989 O.co2     1 UNK         0.0000 
      8 C8         -2.7140    3.1162    1.2906 C.ar      1 UNK         0.0000 
      9 C9         -3.4406    2.9977   -0.0075 C.2       1 UNK         0.0000 
     10 O10        -4.1869    3.8579   -0.4980 O.2       1 UNK         0.0000 
     11 N11        -3.3560    1.7329   -0.4049 N.am      1 UNK         0.0000 
     12 C12        -3.9452    0.9680   -1.4786 C.3       1 UNK         0.0000 
     13 H13        -4.9512    0.6812   -1.1542 H         1 UNK         0.0000 
     14 C14        -4.0528    1.8133   -2.7826 C.3       1 UNK         0.0000 
     15 C15        -4.4929    1.0223   -4.0265 C.3       1 UNK         0.0000 
     16 C16        -4.4038    1.8054   -5.3265 C.3       1 UNK         0.0000 
     17 N17        -4.8843    0.9667   -6.4367 N.pl3     1 UNK         0.0000 
     18 C18        -6.1461    0.5584   -6.6373 C.cat     1 UNK         0.0000 
     19 N19        -6.4295   -0.2684   -7.6546 N.pl3     1 UNK         0.0000 
     20 N20        -7.1279    0.9779   -5.8355 N.pl3     1 UNK         0.0000 
     21 H21        -6.8599    1.5246   -5.0225 H         1 UNK         0.0000 
     22 H22        -8.1052    0.7330   -5.9251 H         1 UNK         0.0000 
     23 C23        -3.1027   -0.3168   -1.6973 C.2       1 UNK         0.0000 
     24 O24        -3.6681   -1.2680   -2.2582 O.2       1 UNK         0.0000 
     25 N25        -1.8030   -0.3067   -1.3712 N.am      1 UNK         0.0000 
     26 C26        -0.8261   -1.3299   -1.7439 C.3       1 UNK         0.0000 
     27 H27        -1.3337   -2.2963   -1.8179 H         1 UNK         0.0000 
     28 C28         0.1556   -1.6073   -0.5680 C.2       1 UNK         0.0000 
     29 O29         0.2480   -0.7781    0.5560 O.co2     1 UNK         0.0000 
     30 O30         0.8091   -2.6472   -0.7743 O.co2     1 UNK         0.0000 
     31 C31        -0.0956   -1.0365   -3.0961 C.3       1 UNK         0.0000 
     32 H32         0.7838   -1.6713   -3.1695 H         1 UNK         0.0000 
     33 C33        -0.9872   -1.4176   -4.3029 C.3       1 UNK         0.0000 
     34 O34         0.2884    0.3464   -3.2475 O.3       1 UNK         0.0000 
     35 C35         1.3491    0.7115   -4.0380 C.2       1 UNK         0.0000 
     36 O36         1.1724    0.8806   -5.2651 O.2       1 UNK         0.0000 
     37 C37         2.7694    0.8366   -3.4014 C.3       1 UNK         0.0000 
     38 H38         3.4327    0.2785   -4.0590 H         1 UNK         0.0000 
     39 C39         2.9589    0.2402   -1.9575 C.3       1 UNK         0.0000 
     40 H40         2.4636   -0.7237   -1.8408 H         1 UNK         0.0000 
     41 O41         2.3903    1.2558   -1.1379 O.co2     1 UNK         0.0000 
     42 C42         4.4004    0.1284   -1.4719 C.3       1 UNK         0.0000 
     43 N43         3.3125    2.2070   -3.2842 N.am      1 UNK         0.0000 
     44 C44         2.9181    3.4484   -3.5477 C.2       1 UNK         0.0000 
     45 O45         2.1962    3.7817   -4.4972 O.2       1 UNK         0.0000 
     46 C46         3.5705    4.5485   -2.6578 C.3       1 UNK         0.0000 
     47 H47         2.8173    5.3122   -2.4747 H         1 UNK         0.0000 
     48 C48         4.8125    5.1371   -3.3872 C.3       1 UNK         0.0000 
     49 C49         4.6041    5.5773   -4.8364 C.3       1 UNK         0.0000 
     50 C50         3.4865    6.6204   -4.9260 C.3       1 UNK         0.0000 
     51 N51         3.1990    6.9244   -6.3228 N.pl3     1 UNK         0.0000 
     52 C52         2.4998    6.1776   -7.1840 C.cat     1 UNK         0.0000 
     53 N53         2.4198    6.5779   -8.4575 N.pl3     1 UNK         0.0000 
     54 N54         1.8944    5.0521   -6.7898 N.pl3     1 UNK         0.0000 
     55 H55         1.9925    4.6731   -5.8208 H         1 UNK         0.0000 
     56 H56         1.3483    4.4510   -7.3829 H         1 UNK         0.0000 
     57 N57         3.9371    4.0976   -1.3036 N.am      1 UNK         0.0000 
     58 C58         4.7826    4.5912   -0.3839 C.2       1 UNK         0.0000 
     59 O59         5.5119    5.5817   -0.5613 O.2       1 UNK         0.0000 
     60 C60         4.9712    3.6763    0.7947 C.ar      1 UNK         0.0000 
     61 C61         3.9047    2.8979    1.2728 C.ar      1 UNK         0.0000 
     62 O62         2.5703    3.2159    0.9936 O.co2     1 UNK         0.0000 
     63 C63         4.1897    1.7021    1.9974 C.ar      1 UNK         0.0000 
     64 O64         3.2380    0.6978    2.1154 O.co2     1 UNK         0.0000 
     65 C65         5.4911    1.4749    2.4410 C.ar      1 UNK         0.0000 
     66 C66         6.5237    2.3503    2.1120 C.ar      1 UNK         0.0000 
     67 C67         6.2728    3.4290    1.2648 C.ar      1 UNK         0.0000 
     68 H68        -4.5134    3.6989    2.3193 H         1 UNK         0.0000 
     69 H69        -3.6136    3.3045    4.5530 H         1 UNK         0.0000 
     70 H70        -1.2882    2.4174    4.8298 H         1 UNK         0.0000 
     71 H71        -2.5446    1.2834    0.0442 H         1 UNK         0.0000 
     72 H72        -3.0812    2.2838   -2.9610 H         1 UNK         0.0000 
     73 H73        -4.7620    2.6278   -2.6217 H         1 UNK         0.0000 
     74 H74        -5.4576    0.5375   -3.8793 H         1 UNK         0.0000 
     75 H75        -3.7962    0.2029   -4.1783 H         1 UNK         0.0000 
     76 H76        -3.3456    1.9809   -5.5184 H         1 UNK         0.0000 
     77 H77        -4.8710    2.7872   -5.2753 H         1 UNK         0.0000 
     78 H78        -4.1302    0.6028   -7.0112 H         1 UNK         0.0000 
     79 H79        -5.7174   -0.5848   -8.3003 H         1 UNK         0.0000 
     80 H80        -7.3690   -0.6066   -7.8422 H         1 UNK         0.0000 
     81 H81        -1.3846    0.3590   -0.7149 H         1 UNK         0.0000 
     82 H82        -1.3839   -2.4222   -4.1732 H         1 UNK         0.0000 
     83 H83        -0.4371   -1.3974   -5.2452 H         1 UNK         0.0000 
     84 H84        -1.8278   -0.7391   -4.4050 H         1 UNK         0.0000 
     85 H85         4.4320   -0.2682   -0.4566 H         1 UNK         0.0000 
     86 H86         4.9126    1.0918   -1.4395 H         1 UNK         0.0000 
     87 H87         4.9519   -0.5393   -2.1168 H         1 UNK         0.0000 
     88 H88         3.5109    2.1263   -2.2702 H         1 UNK         0.0000 
     89 H89         5.6223    4.4072   -3.3396 H         1 UNK         0.0000 
     90 H90         5.1497    6.0216   -2.8497 H         1 UNK         0.0000 
     91 H91         4.4425    4.7426   -5.5262 H         1 UNK         0.0000 
     92 H92         5.5413    6.0409   -5.1444 H         1 UNK         0.0000 
     93 H93         3.8942    7.5423   -4.5080 H         1 UNK         0.0000 
     94 H94         2.5854    6.4030   -4.3520 H         1 UNK         0.0000 
     95 H95         3.6326    7.7895   -6.6012 H         1 UNK         0.0000 
     96 H96         2.8952    7.4084   -8.7807 H         1 UNK         0.0000 
     97 H97         1.9141    6.0479   -9.1539 H         1 UNK         0.0000 
     98 H98         3.3252    3.3937   -0.8548 H         1 UNK         0.0000 
     99 H99         5.6806    0.5711    3.0000 H         1 UNK         0.0000 
    100 H100        7.5323    2.1315    2.4170 H         1 UNK         0.0000 
    101 H101        7.1036    4.0049    0.9000 H         1 UNK         0.0000 
    102 Fe102       1.3411    1.3323    0.9948 Fe        1 UNK         0.0000 
@<TRIPOS>BOND
     1    1    2 ar   
     2    1    8 ar   
     3    1   68 1    
     4    2    3 ar   
     5    2   69 1    
     6    3    4 ar   
     7    3   70 1    
     8    4    5 1    
     9    4    6 ar   
    10    5  102 nc   
    11    6    7 1    
    12    6    8 ar   
    13    7  102 nc   
    14    8    9 1    
    15    9   10 2    
    16    9   11 am   BACKBONE|DICT|INTERRES
    17   11   12 1    
    18   11   71 1    
    19   12   13 1    
    20   12   14 1    
    21   12   23 1    
    22   14   15 1    
    23   14   72 1    
    24   14   73 1    
    25   15   16 1    
    26   15   74 1    
    27   15   75 1    
    28   16   17 1    
    29   16   76 1    
    30   16   77 1    
    31   17   18 ar   
    32   17   78 1    
    33   18   19 ar   
    34   18   20 ar   
    35   19   79 1    
    36   19   80 1    
    37   20   21 1    
    38   20   22 1    
    39   23   24 2    
    40   23   25 am   BACKBONE|DICT|INTERRES
    41   25   81 1    
    42   25   26 1    
    43   26   28 1    
    44   26   31 1    
    45   26   27 1    
    46   28   29 1    
    47   28   30 2    
    48   29  102 nc   
    49   31   32 1    
    50   31   33 1    
    51   31   34 1    
    52   33   82 1    
    53   33   83 1    
    54   33   84 1    
    55   34   35 1    
    56   35   36 2    
    57   35   37 1    
    58   37   43 1    
    59   37   38 1    
    60   37   39 1    
    61   39   41 1    
    62   39   42 1    
    63   39   40 1    
    64   41  102 nc   
    65   42   85 1    
    66   42   86 1    
    67   42   87 1    
    68   43   44 am   BACKBONE|DICT|INTERRES
    69   43   88 1    
    70   44   45 2    
    71   44   46 1    
    72   46   48 1    
    73   46   57 1    
    74   46   47 1    
    75   48   49 1    
    76   48   89 1    
    77   48   90 1    
    78   49   50 1    
    79   49   91 1    
    80   49   92 1    
    81   50   51 1    
    82   50   93 1    
    83   50   94 1    
    84   51   52 ar   
    85   51   95 1    
    86   52   53 ar   
    87   52   54 ar   
    88   53   96 1    
    89   53   97 1    
    90   54   55 1    
    91   54   56 1    
    92   57   58 am   BACKBONE|DICT|INTERRES
    93   57   98 1    
    94   58   59 2    
    95   58   60 1    
    96   60   61 ar   
    97   60   67 ar   
    98   61   62 1    
    99   61   63 ar   
   100   62  102 nc   
   101   63   64 1    
   102   63   65 ar   
   103   64  102 nc   
   104   65   66 ar   
   105   65   99 1    
   106   66   67 ar   
   107   66  100 1    
   108   67  101 1    
@<TRIPOS>SUBSTRUCTURE
     1 UNK         1 GROUP             0       ****    0 ROOT    
