@<TRIPOS>MOLECULE
096_c1
85   90    1
SMALL
USER_CHARGES


@<TRIPOS>ATOM
      1 Fe1        -0.3194   -0.1178   -0.0327 Fe        1 UNK         0.0000 
      2 O2         -1.1088   -1.2138    1.6324 O.co2     1 UNK         0.0000 
      3 N3         -0.1076   -1.5137    2.4417 N.am      1 UNK         0.0000 
      4 C4         -0.3416   -2.7605    3.1718 C.3       1 UNK         0.0000 
      5 C5          0.0527   -3.9643    2.2857 C.3       1 UNK         0.0000 
      6 C6         -0.3499   -5.3275    2.8462 C.3       1 UNK         0.0000 
      7 C7          0.1040   -6.4972    1.9407 C.3       1 UNK         0.0000 
      8 C8         -0.7135   -6.7072    0.6430 C.3       1 UNK         0.0000 
      9 N9         -0.3695   -5.8263   -0.4859 N.am      1 UNK         0.0000 
     10 C10        -1.2477   -5.1127   -1.2084 C.2       1 UNK         0.0000 
     11 O11        -2.4329   -5.0027   -0.9111 O.2       1 UNK         0.0000 
     12 C12        -0.7327   -4.5037   -2.5240 C.3       1 UNK         0.0000 
     13 C13        -1.2787   -3.1012   -2.9029 C.3       1 UNK         0.0000 
     14 C14        -0.6177   -1.9665   -2.1239 C.2       1 UNK         0.0000 
     15 O15        -1.0234   -1.6075   -1.0179 O.co2     1 UNK         0.0000 
     16 N16         0.3897   -1.2210   -2.6026 N.am      1 UNK         0.0000 
     17 O17         0.8654   -0.2740   -1.8193 O.co2     1 UNK         0.0000 
     18 C18         0.9431   -1.2207   -3.9627 C.3       1 UNK         0.0000 
     19 C19         0.2212   -0.2488   -4.9409 C.3       1 UNK         0.0000 
     20 C20         0.8543    1.1531   -5.1790 C.3       1 UNK         0.0000 
     21 C21         0.3438    2.3437   -4.3345 C.3       1 UNK         0.0000 
     22 N22         1.0935    2.6271   -3.0991 N.am      1 UNK         0.0000 
     23 C23         1.0753    3.8385   -2.4948 C.2       1 UNK         0.0000 
     24 O24         0.5434    4.8205   -3.0048 O.2       1 UNK         0.0000 
     25 C25         1.6771    3.9818   -1.0803 C.3       1 UNK         0.0000 
     26 C26         0.6026    3.9950    0.0703 C.3       1 UNK         0.0000 
     27 C27        -0.1265    2.6578    0.1569 C.2       1 UNK         0.0000 
     28 O28         0.4317    1.6578   -0.2565 O.co2     1 UNK         0.0000 
     29 N29        -1.3406    2.3839    0.6391 N.am      1 UNK         0.0000 
     30 O30        -1.8513    1.1870    0.3676 O.co2     1 UNK         0.0000 
     31 C31        -1.8630    3.0104    1.8720 C.3       1 UNK         0.0000 
     32 C32        -0.9442    2.8011    3.1038 C.3       1 UNK         0.0000 
     33 C33        -1.5833    3.2557    4.4311 C.3       1 UNK         0.0000 
     34 C34        -0.5863    3.5102    5.5909 C.3       1 UNK         0.0000 
     35 C35         0.1159    2.2709    6.1907 C.3       1 UNK         0.0000 
     36 N36         1.1746    1.7215    5.3326 N.am      1 UNK         0.0000 
     37 C37         1.3710    0.4178    5.0854 C.2       1 UNK         0.0000 
     38 O38         0.7178   -0.4726    5.6193 O.2       1 UNK         0.0000 
     39 C39         2.4946    0.0712    4.0984 C.3       1 UNK         0.0000 
     40 C40         2.2650   -1.2063    3.2428 C.3       1 UNK         0.0000 
     41 C41         1.1415   -1.0709    2.2128 C.2       1 UNK         0.0000 
     42 O42         1.3502   -0.5567    1.1150 O.co2     1 UNK         0.0000 
     43 H43        -1.3990   -2.8404    3.4441 H         1 UNK         0.0000 
     44 H44         0.1573   -2.7811    4.1384 H         1 UNK         0.0000 
     45 H45        -0.4026   -3.8377    1.3023 H         1 UNK         0.0000 
     46 H46         1.1337   -3.9622    2.1295 H         1 UNK         0.0000 
     47 H47         0.0904   -5.4441    3.8410 H         1 UNK         0.0000 
     48 H48        -1.4326   -5.3568    2.9954 H         1 UNK         0.0000 
     49 H49         0.0258   -7.4134    2.5321 H         1 UNK         0.0000 
     50 H50         1.1685   -6.4067    1.7200 H         1 UNK         0.0000 
     51 H51        -0.6133   -7.7420    0.3078 H         1 UNK         0.0000 
     52 H52        -1.7687   -6.6145    0.9008 H         1 UNK         0.0000 
     53 H53         0.5872   -5.8197   -0.7938 H         1 UNK         0.0000 
     54 H54         0.3445   -4.5943   -2.6728 H         1 UNK         0.0000 
     55 H55        -1.1483   -5.1913   -3.2628 H         1 UNK         0.0000 
     56 H56        -1.0954   -2.9071   -3.9593 H         1 UNK         0.0000 
     57 H57        -2.3640   -3.0406   -2.8199 H         1 UNK         0.0000 
     58 H58         0.8833   -2.2260   -4.3830 H         1 UNK         0.0000 
     59 H59         2.0221   -1.0240   -3.9517 H         1 UNK         0.0000 
     60 H60         0.2429   -0.7447   -5.9165 H         1 UNK         0.0000 
     61 H61        -0.8434   -0.1721   -4.7051 H         1 UNK         0.0000 
     62 H62         1.9428    1.1071   -5.1701 H         1 UNK         0.0000 
     63 H63         0.6102    1.4147   -6.2097 H         1 UNK         0.0000 
     64 H64        -0.7059    2.1969   -4.0678 H         1 UNK         0.0000 
     65 H65         0.3331    3.2314   -4.9761 H         1 UNK         0.0000 
     66 H66         1.4115    1.8100   -2.5848 H         1 UNK         0.0000 
     67 H67         2.2273    4.9240   -1.0768 H         1 UNK         0.0000 
     68 H68         2.4770    3.2589   -0.9014 H         1 UNK         0.0000 
     69 H69        -0.0668    4.8560    0.0207 H         1 UNK         0.0000 
     70 H70         1.1357    4.1072    1.0140 H         1 UNK         0.0000 
     71 H71        -2.8415    2.5811    2.1147 H         1 UNK         0.0000 
     72 H72        -2.0698    4.0599    1.6946 H         1 UNK         0.0000 
     73 H73        -0.0192    3.3616    2.9612 H         1 UNK         0.0000 
     74 H74        -0.6652    1.7486    3.1968 H         1 UNK         0.0000 
     75 H75        -2.1334    4.1814    4.2565 H         1 UNK         0.0000 
     76 H76        -2.3408    2.5332    4.7392 H         1 UNK         0.0000 
     77 H77         0.1600    4.2409    5.2819 H         1 UNK         0.0000 
     78 H78        -1.1296    3.9983    6.4038 H         1 UNK         0.0000 
     79 H79        -0.6504    1.5172    6.3782 H         1 UNK         0.0000 
     80 H80         0.5227    2.4912    7.1820 H         1 UNK         0.0000 
     81 H81         1.8699    2.3670    4.9959 H         1 UNK         0.0000 
     82 H82         2.8245    0.9178    3.4926 H         1 UNK         0.0000 
     83 H83         3.3558   -0.1270    4.7351 H         1 UNK         0.0000 
     84 H84         3.1720   -1.3995    2.6743 H         1 UNK         0.0000 
     85 H85         2.1958   -2.1007    3.8535 H         1 UNK         0.0000 
@<TRIPOS>BOND
     1    1    2 nc   
     2    1   15 nc   
     3    1   17 nc   
     4    1   28 nc   
     5    1   30 nc   
     6    1   42 nc   
     7    2    3 1    
     8    3    4 1    
     9    3   41 am   BACKBONE|DICT|INTERRES
    10    4   43 1    
    11    4   44 1    
    12    4    5 1    
    13    5    6 1    
    14    5   45 1    
    15    5   46 1    
    16    6   48 1    
    17    6   47 1    
    18    6    7 1    
    19    7   49 1    
    20    7    8 1    
    21    7   50 1    
    22    8   52 1    
    23    8    9 1    
    24    8   51 1    
    25    9   10 am   BACKBONE|DICT|INTERRES
    26    9   53 1    
    27   10   11 2    
    28   10   12 1    
    29   12   13 1    
    30   12   54 1    
    31   12   55 1    
    32   13   57 1    
    33   13   14 1    
    34   13   56 1    
    35   14   15 2    
    36   14   16 am   BACKBONE|DICT|INTERRES
    37   16   17 1    
    38   16   18 1    
    39   18   19 1    
    40   18   58 1    
    41   18   59 1    
    42   19   61 1    
    43   19   20 1    
    44   19   60 1    
    45   20   21 1    
    46   20   62 1    
    47   20   63 1    
    48   21   64 1    
    49   21   22 1    
    50   21   65 1    
    51   22   66 1    
    52   22   23 am   BACKBONE|DICT|INTERRES
    53   23   25 1    
    54   23   24 2    
    55   25   67 1    
    56   25   68 1    
    57   25   26 1    
    58   26   70 1    
    59   26   27 1    
    60   26   69 1    
    61   27   29 am   BACKBONE|DICT|INTERRES
    62   27   28 2    
    63   29   31 1    
    64   29   30 1    
    65   31   71 1    
    66   31   32 1    
    67   31   72 1    
    68   32   74 1    
    69   32   33 1    
    70   32   73 1    
    71   33   76 1    
    72   33   34 1    
    73   33   75 1    
    74   34   35 1    
    75   34   78 1    
    76   34   77 1    
    77   35   79 1    
    78   35   80 1    
    79   35   36 1    
    80   36   37 am   BACKBONE|DICT|INTERRES
    81   36   81 1    
    82   37   38 2    
    83   37   39 1    
    84   39   83 1    
    85   39   40 1    
    86   39   82 1    
    87   40   85 1    
    88   40   41 1    
    89   40   84 1    
    90   41   42 2    
@<TRIPOS>SUBSTRUCTURE
     1 UNK         1 GROUP             0       ****    0 ROOT    
