@<TRIPOS>MOLECULE
171_c1
98   103    1
SMALL
USER_CHARGES


@<TRIPOS>ATOM
      1 Fe1         0.1533    1.2286    1.2895 Fe        1 UNK         0.0000 
      2 O2          2.1776    0.6955    1.1937 O.co2     1 UNK         0.0000 
      3 C3          2.5731   -0.4355    1.4592 C.2       1 UNK         0.0000 
      4 C4          3.9720   -0.9175    1.0962 C.3       1 UNK         0.0000 
      5 N5          1.6257   -1.2029    2.0263 N.am      1 UNK         0.0000 
      6 O6          0.4611   -0.6214    2.3186 O.co2     1 UNK         0.0000 
      7 C7          1.6709   -2.6711    2.1574 C.3       1 UNK         0.0000 
      8 C8          1.7014   -3.4289    0.8006 C.3       1 UNK         0.0000 
      9 C9          1.6313   -4.9703    0.9455 C.3       1 UNK         0.0000 
     10 C10         0.3251   -5.6330    0.4343 C.3       1 UNK         0.0000 
     11 H11         0.4056   -6.6959    0.6711 H         1 UNK         0.0000 
     12 N12         0.1727   -5.5539   -1.0343 N.am      1 UNK         0.0000 
     13 C13        -0.9265   -5.1906   -1.7061 C.2       1 UNK         0.0000 
     14 O14        -0.9296   -5.2830   -2.9282 O.2       1 UNK         0.0000 
     15 C15        -0.8959   -5.1953    1.3040 C.2       1 UNK         0.0000 
     16 O16        -0.9386   -5.2632    2.5277 O.2       1 UNK         0.0000 
     17 N17        -1.9631   -4.7488    0.6288 N.am      1 UNK         0.0000 
     18 C18        -2.1279   -4.6912   -0.8425 C.3       1 UNK         0.0000 
     19 H19        -2.9036   -5.4170   -1.0886 H         1 UNK         0.0000 
     20 C20        -2.6333   -3.3170   -1.3680 C.3       1 UNK         0.0000 
     21 C21        -1.6987   -2.1293   -1.0381 C.3       1 UNK         0.0000 
     22 C22        -2.1675   -0.7485   -1.5911 C.3       1 UNK         0.0000 
     23 N23        -1.4624    0.3968   -0.9829 N.am      1 UNK         0.0000 
     24 O24        -1.5806    0.4413    0.3380 O.co2     1 UNK         0.0000 
     25 C25        -0.5795    1.2601   -1.5438 C.2       1 UNK         0.0000 
     26 O26         0.0481    1.8948   -0.6961 O.co2     1 UNK         0.0000 
     27 C27        -0.3371    1.3624   -2.9656 C.2       1 UNK         0.0000 
     28 C28         0.5143    2.2385   -3.5753 C.2       1 UNK         0.0000 
     29 C29         0.7060    2.1943   -5.0855 C.3       1 UNK         0.0000 
     30 C30         1.3879    3.3216   -2.8986 C.3       1 UNK         0.0000 
     31 C31         0.8473    4.7568   -3.0648 C.3       1 UNK         0.0000 
     32 O32         1.4638    5.5992   -2.0950 O.3       1 UNK         0.0000 
     33 C33         1.0812    6.8887   -1.9603 C.2       1 UNK         0.0000 
     34 O34         0.3101    7.4637   -2.7356 O.2       1 UNK         0.0000 
     35 C35         1.6829    7.5349   -0.6955 C.3       1 UNK         0.0000 
     36 H36         2.7329    7.2307   -0.6273 H         1 UNK         0.0000 
     37 N37         1.5775    8.9984   -0.8547 N.am      1 UNK         0.0000 
     38 C38         2.5918    9.8743   -0.7841 C.2       1 UNK         0.0000 
     39 O39         3.7546    9.5211   -0.6156 O.2       1 UNK         0.0000 
     40 C40         2.2570   11.3565   -0.9151 C.3       1 UNK         0.0000 
     41 C41         0.9570    7.0963    0.6136 C.3       1 UNK         0.0000 
     42 C42         0.8496    5.5699    0.8475 C.3       1 UNK         0.0000 
     43 C43         0.3072    5.1435    2.2407 C.3       1 UNK         0.0000 
     44 N44         0.0576    3.6839    2.3885 N.am      1 UNK         0.0000 
     45 O45         0.7546    2.8785    1.5987 O.co2     1 UNK         0.0000 
     46 C46        -0.8794    3.0652    3.1457 C.2       1 UNK         0.0000 
     47 O47        -0.9874    1.8729    2.8238 O.co2     1 UNK         0.0000 
     48 C48        -1.5872    3.7473    4.2087 C.2       1 UNK         0.0000 
     49 C49        -2.2435    3.1304    5.2279 C.2       1 UNK         0.0000 
     50 C50        -2.2885    1.6026    5.4124 C.3       1 UNK         0.0000 
     51 C51        -2.9651    3.9415    6.3069 C.3       1 UNK         0.0000 
     52 H52        -2.8527    5.0091    6.0967 H         1 UNK         0.0000 
     53 O53        -2.2765    3.7049    7.5245 O.3       1 UNK         0.0000 
     54 C54        -4.4914    3.6386    6.4087 C.3       1 UNK         0.0000 
     55 O55        -5.1550    4.4188    7.3960 O.3       1 UNK         0.0000 
     56 H56         4.7085   -0.2503    1.5418 H         1 UNK         0.0000 
     57 H57         4.1713   -1.9313    1.4428 H         1 UNK         0.0000 
     58 H58         4.0805   -0.8832    0.0133 H         1 UNK         0.0000 
     59 H59         0.7974   -3.0150    2.7265 H         1 UNK         0.0000 
     60 H60         2.5236   -2.9699    2.7744 H         1 UNK         0.0000 
     61 H61         2.6251   -3.1847    0.2722 H         1 UNK         0.0000 
     62 H62         0.8954   -3.0724    0.1582 H         1 UNK         0.0000 
     63 H63         1.8193   -5.2731    1.9786 H         1 UNK         0.0000 
     64 H64         2.4671   -5.4031    0.3927 H         1 UNK         0.0000 
     65 H65         0.9251   -5.8369   -1.6391 H         1 UNK         0.0000 
     66 H66        -2.7007   -4.4378    1.2378 H         1 UNK         0.0000 
     67 H67        -2.8260   -3.3626   -2.4431 H         1 UNK         0.0000 
     68 H68        -3.6073   -3.1117   -0.9179 H         1 UNK         0.0000 
     69 H69        -1.6073   -2.0858    0.0505 H         1 UNK         0.0000 
     70 H70        -0.6966   -2.3347   -1.4186 H         1 UNK         0.0000 
     71 H71        -3.2318   -0.6081   -1.3757 H         1 UNK         0.0000 
     72 H72        -2.1168   -0.7596   -2.6776 H         1 UNK         0.0000 
     73 H73         0.3875    3.1314   -5.5451 H         1 UNK         0.0000 
     74 H74         1.7586    2.0393   -5.3393 H         1 UNK         0.0000 
     75 H75         0.1405    1.3881   -5.5598 H         1 UNK         0.0000 
     76 H76         1.5406    3.1502   -1.8348 H         1 UNK         0.0000 
     77 H77         2.4003    3.2720   -3.3059 H         1 UNK         0.0000 
     78 H78         1.0560    5.1326   -4.0675 H         1 UNK         0.0000 
     79 H79        -0.2350    4.7637   -2.9170 H         1 UNK         0.0000 
     80 H80         0.6447    9.3500   -1.0196 H         1 UNK         0.0000 
     81 H81         1.1828   11.5362   -0.9810 H         1 UNK         0.0000 
     82 H82         2.7322   11.7723   -1.8047 H         1 UNK         0.0000 
     83 H83         2.6390   11.8927   -0.0459 H         1 UNK         0.0000 
     84 H84        -0.0478    7.5191    0.6226 H         1 UNK         0.0000 
     85 H85         1.4712    7.5533    1.4613 H         1 UNK         0.0000 
     86 H86         0.1979    5.1404    0.0837 H         1 UNK         0.0000 
     87 H87         1.8417    5.1267    0.7104 H         1 UNK         0.0000 
     88 H88        -0.6037    5.7060    2.4295 H         1 UNK         0.0000 
     89 H89         1.0131    5.4612    3.0078 H         1 UNK         0.0000 
     90 H90        -2.7347    1.2929    6.3591 H         1 UNK         0.0000 
     91 H91        -2.8774    1.1499    4.6160 H         1 UNK         0.0000 
     92 H92        -1.2823    1.1785    5.3962 H         1 UNK         0.0000 
     93 H93        -2.6164    2.8983    7.9143 H         1 UNK         0.0000 
     94 H94        -4.6627    2.5834    6.6201 H         1 UNK         0.0000 
     95 H95        -4.9602    3.8301    5.4413 H         1 UNK         0.0000 
     96 H96        -6.0793    4.1626    7.4639 H         1 UNK         0.0000 
     97 H97        -0.8923    0.6538   -3.5604 H         1 UNK         0.0000 
     98 H98        -1.5561    4.8234    4.1516 H         1 UNK         0.0000 
@<TRIPOS>BOND
     1    1    2 nc   
     2    1    6 nc   
     3    1   24 nc   
     4    1   26 nc   
     5    1   45 nc   
     6    1   47 nc   
     7    2    3 2    
     8    3    4 1    
     9    3    5 am   BACKBONE|DICT|INTERRES
    10    4   57 1    
    11    4   56 1    
    12    4   58 1    
    13    5    7 1    
    14    5    6 1    
    15    7   59 1    
    16    7   60 1    
    17    7    8 1    
    18    8    9 1    
    19    8   61 1    
    20    8   62 1    
    21    9   63 1    
    22    9   10 1    
    23    9   64 1    
    24   10   11 1    
    25   10   15 1    
    26   10   12 1    
    27   12   13 am   BACKBONE|DICT|INTERRES
    28   12   65 1    
    29   13   18 1    
    30   13   14 2    
    31   15   16 2    
    32   15   17 am   BACKBONE|DICT|INTERRES
    33   17   66 1    
    34   17   18 1    
    35   18   19 1    
    36   18   20 1    
    37   20   21 1    
    38   20   68 1    
    39   20   67 1    
    40   21   69 1    
    41   21   22 1    
    42   21   70 1    
    43   22   71 1    
    44   22   23 1    
    45   22   72 1    
    46   23   24 1    
    47   23   25 am   BACKBONE|DICT|INTERRES
    48   25   26 2    
    49   25   27 1    
    50   27   28 2    
    51   27   97 1    
    52   28   29 1    
    53   28   30 1    
    54   29   73 1    
    55   29   74 1    
    56   29   75 1    
    57   30   76 1    
    58   30   31 1    
    59   30   77 1    
    60   31   79 1    
    61   31   32 1    
    62   31   78 1    
    63   32   33 1    
    64   33   35 1    
    65   33   34 2    
    66   35   36 1    
    67   35   41 1    
    68   35   37 1    
    69   37   38 am   BACKBONE|DICT|INTERRES
    70   37   80 1    
    71   38   39 2    
    72   38   40 1    
    73   40   83 1    
    74   40   81 1    
    75   40   82 1    
    76   41   84 1    
    77   41   42 1    
    78   41   85 1    
    79   42   43 1    
    80   42   86 1    
    81   42   87 1    
    82   43   88 1    
    83   43   44 1    
    84   43   89 1    
    85   44   46 am   BACKBONE|DICT|INTERRES
    86   44   45 1    
    87   46   48 1    
    88   46   47 2    
    89   48   49 2    
    90   48   98 1    
    91   49   50 1    
    92   49   51 1    
    93   50   92 1    
    94   50   90 1    
    95   50   91 1    
    96   51   52 1    
    97   51   54 1    
    98   51   53 1    
    99   53   93 1    
   100   54   94 1    
   101   54   55 1    
   102   54   95 1    
   103   55   96 1    
@<TRIPOS>SUBSTRUCTURE
     1 UNK         1 GROUP             0       ****    0 ROOT    
