@<TRIPOS>MOLECULE
023_c1
72   76    1
SMALL
USER_CHARGES


@<TRIPOS>ATOM
      1 Fe1        -0.4137    0.8457    1.7207 Fe        1 UNK         0.0000 
      2 O2         -0.9218    0.2749    3.5692 O.co2     1 UNK         0.0000 
      3 C3         -0.7273   -0.8067    4.0710 C.2       1 UNK         0.0000 
      4 C4         -0.5339   -1.1242    5.5185 C.3       1 UNK         0.0000 
      5 N5         -0.7614   -1.5897    3.0862 N.am      1 UNK         0.0000 
      6 O6         -0.9556   -0.6875    2.1216 O.co2     1 UNK         0.0000 
      7 C7         -0.6638   -3.0243    2.9642 C.3       1 UNK         0.0000 
      8 C8          0.2872   -3.3155    1.8254 C.3       1 UNK         0.0000 
      9 C9          0.4512   -4.8018    1.5534 C.3       1 UNK         0.0000 
     10 C10         1.4265   -5.0392    0.3969 C.3       1 UNK         0.0000 
     11 C11         0.8809   -4.7925   -1.0367 C.3       1 UNK         0.0000 
     12 H12         0.0363   -5.5016   -1.1918 H         1 UNK         0.0000 
     13 C13         1.9484   -5.1763   -2.0322 C.2       1 UNK         0.0000 
     14 O14         1.7418   -6.2061   -2.8762 O.2       1 UNK         0.0000 
     15 O15         3.0010   -4.5604   -2.0859 O.3       1 UNK         0.0000 
     16 N16         0.3841   -3.4527   -1.3687 N.am      1 UNK         0.0000 
     17 C17         1.0585   -2.2743   -1.2061 C.2       1 UNK         0.0000 
     18 O18         2.0915   -2.2295   -0.5547 O.2       1 UNK         0.0000 
     19 C19         0.6295   -1.0464   -1.9828 C.3       1 UNK         0.0000 
     20 C20         0.1553    0.2915   -1.3139 C.3       1 UNK         0.0000 
     21 O21         0.7800    0.5661   -0.0793 O.co2     1 UNK         0.0000 
     22 C22        -1.2268    0.2831   -0.8635 C.2       1 UNK         0.0000 
     23 O23        -1.3318    0.7485    0.4014 O.co2     1 UNK         0.0000 
     24 O24        -2.1972    0.0423   -1.5644 O.co2     1 UNK         0.0000 
     25 C25         0.3437    1.4037   -2.4097 C.3       1 UNK         0.0000 
     26 C26        -0.0506    2.8341   -2.1049 C.2       1 UNK         0.0000 
     27 O27        -1.1819    3.0582   -1.7052 O.2       1 UNK         0.0000 
     28 N28         0.8171    3.8588   -2.3993 N.am      1 UNK         0.0000 
     29 C29         0.5548    5.3010   -2.2950 C.3       1 UNK         0.0000 
     30 H30         1.3983    5.8184   -2.8068 H         1 UNK         0.0000 
     31 C31        -0.6919    5.7259   -3.0456 C.2       1 UNK         0.0000 
     32 O32        -0.5740    6.5290   -4.1206 O.2       1 UNK         0.0000 
     33 O33        -1.8051    5.3826   -2.6841 O.3       1 UNK         0.0000 
     34 C34         0.6204    5.8453   -0.8483 C.3       1 UNK         0.0000 
     35 C35        -0.2940    5.1346    0.1369 C.3       1 UNK         0.0000 
     36 C36        -0.1618    5.6768    1.5650 C.3       1 UNK         0.0000 
     37 C37        -0.9178    4.7494    2.5258 C.3       1 UNK         0.0000 
     38 N38        -0.3765    3.3980    2.4355 N.am      1 UNK         0.0000 
     39 O39        -0.9896    2.3605    1.8306 O.co2     1 UNK         0.0000 
     40 C40         0.8015    2.9748    2.8196 C.2       1 UNK         0.0000 
     41 O41         0.9367    1.8117    2.4805 O.co2     1 UNK         0.0000 
     42 C42         1.8510    3.7453    3.5662 C.3       1 UNK         0.0000 
     43 H43         0.4546   -1.6079    5.6632 H         1 UNK         0.0000 
     44 H44        -1.3346   -1.8131    5.8591 H         1 UNK         0.0000 
     45 H45        -0.5739   -0.1927    6.1208 H         1 UNK         0.0000 
     46 H46        -0.3412   -3.4861    3.9219 H         1 UNK         0.0000 
     47 H47        -1.6623   -3.4271    2.6871 H         1 UNK         0.0000 
     48 H48        -0.1493   -2.8304    0.9385 H         1 UNK         0.0000 
     49 H49         1.2789   -2.8651    2.0536 H         1 UNK         0.0000 
     50 H50        -0.5216   -5.2991    1.3451 H         1 UNK         0.0000 
     51 H51         0.8862   -5.2539    2.4720 H         1 UNK         0.0000 
     52 H52         1.6924   -6.1197    0.4347 H         1 UNK         0.0000 
     53 H53         2.3666   -4.4765    0.5833 H         1 UNK         0.0000 
     54 H54        -0.5059   -3.4263   -1.8900 H         1 UNK         0.0000 
     55 H55        -0.1283   -1.3240   -2.7485 H         1 UNK         0.0000 
     56 H56         1.5540   -0.8271   -2.5617 H         1 UNK         0.0000 
     57 H57        -0.2713    1.1030   -3.2874 H         1 UNK         0.0000 
     58 H58         1.4026    1.4012   -2.7469 H         1 UNK         0.0000 
     59 H59         1.7289    3.6050   -2.8093 H         1 UNK         0.0000 
     60 H60         0.4030    6.9361   -0.8563 H         1 UNK         0.0000 
     61 H61         1.6632    5.7092   -0.4834 H         1 UNK         0.0000 
     62 H62        -1.3571    5.1942   -0.1776 H         1 UNK         0.0000 
     63 H63         0.0400    4.0822    0.1456 H         1 UNK         0.0000 
     64 H64        -0.5717    6.7084    1.6186 H         1 UNK         0.0000 
     65 H65         0.9082    5.7145    1.8514 H         1 UNK         0.0000 
     66 H66        -0.8766    5.1105    3.5751 H         1 UNK         0.0000 
     67 H67        -1.9857    4.7504    2.2140 H         1 UNK         0.0000 
     68 H68         1.5162    4.7697    3.8206 H         1 UNK         0.0000 
     69 H69         2.0777    3.2186    4.5166 H         1 UNK         0.0000 
     70 H70         2.7748    3.8041    2.9544 H         1 UNK         0.0000 
     71 H71         3.5584   -4.9375   -2.7706 H         1 UNK         0.0000 
     72 H72        -2.4626    5.7475   -3.2809 H         1 UNK         0.0000 
@<TRIPOS>BOND
     1    1    2 nc   
     2    1    6 nc   
     3    1   21 nc   
     4    1   23 nc   
     5    1   39 nc   
     6    1   41 nc   
     7    2    3 2    
     8    3    4 1    
     9    3    5 am   BACKBONE|DICT|INTERRES
    10    4   43 1    
    11    4   44 1    
    12    4   45 1    
    13    5    6 1    
    14    5    7 1    
    15    7   46 1    
    16    7    8 1    
    17    7   47 1    
    18    8   49 1    
    19    8    9 1    
    20    8   48 1    
    21    9   51 1    
    22    9   10 1    
    23    9   50 1    
    24   10   52 1    
    25   10   53 1    
    26   10   11 1    
    27   11   12 1    
    28   11   13 1    
    29   11   16 1    
    30   13   14 2    
    31   13   15 1    
    32   15   71 1    
    33   16   17 am   BACKBONE|DICT|INTERRES
    34   16   54 1    
    35   17   18 2    
    36   17   19 1    
    37   19   20 1    
    38   19   55 1    
    39   19   56 1    
    40   20   22 1    
    41   20   21 1    
    42   20   25 1    
    43   22   23 1    
    44   22   24 2    
    45   25   26 1    
    46   25   57 1    
    47   25   58 1    
    48   26   27 2    
    49   26   28 am   BACKBONE|DICT|INTERRES
    50   28   29 1    
    51   28   59 1    
    52   29   30 1    
    53   29   34 1    
    54   29   31 1    
    55   31   33 1    
    56   31   32 2    
    57   33   72 1    
    58   34   61 1    
    59   34   35 1    
    60   34   60 1    
    61   35   63 1    
    62   35   36 1    
    63   35   62 1    
    64   36   64 1    
    65   36   65 1    
    66   36   37 1    
    67   37   66 1    
    68   37   38 1    
    69   37   67 1    
    70   38   40 am   BACKBONE|DICT|INTERRES
    71   38   39 1    
    72   40   42 1    
    73   40   41 2    
    74   42   68 1    
    75   42   69 1    
    76   42   70 1    
@<TRIPOS>SUBSTRUCTURE
     1 UNK         1 GROUP             0       ****    0 ROOT    
