@<TRIPOS>MOLECULE
167_c1
72   79    1
SMALL
USER_CHARGES


@<TRIPOS>ATOM
      1 Fe1        -0.6411    2.4631    1.2742 Fe        1 UNK         0.0000 
      2 C2         -0.2010   -1.3042    3.0691 C.ar      1 UNK         0.0000 
      3 C3          0.6942   -0.6109    3.8711 C.ar      1 UNK         0.0000 
      4 C4          0.5437    0.7557    4.0745 C.ar      1 UNK         0.0000 
      5 C5         -0.4907    1.4588    3.4605 C.ar      1 UNK         0.0000 
      6 O6         -0.3718    2.7453    3.4451 O.co2     1 UNK         0.0000 
      7 C7         -1.4651    0.7377    2.7083 C.ar      1 UNK         0.0000 
      8 O8         -2.3801    1.4235    2.1464 O.co2     1 UNK         0.0000 
      9 C9         -1.3010   -0.6691    2.4591 C.ar      1 UNK         0.0000 
     10 C10        -2.1697   -1.5333    1.5181 C.2       1 UNK         0.0000 
     11 O11        -3.4069   -1.5941    1.6085 O.2       1 UNK         0.0000 
     12 N12        -1.4862   -2.4099    0.7115 N.am      1 UNK         0.0000 
     13 C13        -2.0451   -3.6021    0.0247 C.3       1 UNK         0.0000 
     14 C14        -2.2899   -3.5595   -1.5312 C.3       1 UNK         0.0000 
     15 C15        -1.0656   -3.5807   -2.5588 C.3       1 UNK         0.0000 
     16 C16        -1.1242   -2.5358   -3.7842 C.3       1 UNK         0.0000 
     17 H17        -1.7920   -2.9633   -4.5303 H         1 UNK         0.0000 
     18 N18        -1.8316   -1.4008   -3.3460 N.am      1 UNK         0.0000 
     19 C19        -1.4683   -0.4931   -2.4746 C.2       1 UNK         0.0000 
     20 O20        -2.2477    0.4627   -2.6045 O.2       1 UNK         0.0000 
     21 C21        -0.1694   -0.5118   -1.5768 C.ar      1 UNK         0.0000 
     22 C22        -0.0380    0.4096   -0.5283 C.ar      1 UNK         0.0000 
     23 O23        -1.0630    1.1036   -0.3369 O.co2     1 UNK         0.0000 
     24 C24         1.1598    0.5832    0.2201 C.ar      1 UNK         0.0000 
     25 O25         1.2821    1.4198    1.1624 O.co2     1 UNK         0.0000 
     26 C26         2.3018   -0.1618   -0.0866 C.ar      1 UNK         0.0000 
     27 S27         3.9146    0.1239    0.7405 S.3       1 UNK         0.0000 
     28 O28         4.4965    1.4195    0.3771 O.2       1 UNK         0.0000 
     29 O29         4.8442   -0.9767   -0.0677 O.3       1 UNK         0.0000 
     30 O30         3.9211   -0.3506    2.1317 O.2       1 UNK         0.0000 
     31 C31         2.1884   -1.1332   -1.0684 C.ar      1 UNK         0.0000 
     32 C32         0.9954   -1.3079   -1.7654 C.ar      1 UNK         0.0000 
     33 C33         0.1624   -2.0817   -4.6127 C.2       1 UNK         0.0000 
     34 O34         0.8885   -2.9973   -4.9925 O.2       1 UNK         0.0000 
     35 N35         0.5662   -0.7881   -4.8913 N.am      1 UNK         0.0000 
     36 C36        -0.0555    0.5810   -4.8510 C.3       1 UNK         0.0000 
     37 C37         0.6155    1.7340   -3.9960 C.2       1 UNK         0.0000 
     38 O38         1.7190    2.1450   -4.3647 O.2       1 UNK         0.0000 
     39 N39        -0.0693    2.3586   -2.9893 N.am      1 UNK         0.0000 
     40 C40         0.1900    3.7152   -2.3849 C.3       1 UNK         0.0000 
     41 H41         1.2719    3.8490   -2.3592 H         1 UNK         0.0000 
     42 C42        -0.2049    3.8554   -0.8536 C.2       1 UNK         0.0000 
     43 O43         0.4026    3.4639    0.1522 O.co2     1 UNK         0.0000 
     44 C44        -0.4610    4.9010   -3.1286 C.3       1 UNK         0.0000 
     45 C45        -1.9742    4.9820   -2.8493 C.3       1 UNK         0.0000 
     46 C46        -2.3263    5.1148   -1.3411 C.3       1 UNK         0.0000 
     47 N47        -1.4680    4.2411   -0.5200 N.am      1 UNK         0.0000 
     48 O48        -1.7566    3.9605    0.7687 O.co2     1 UNK         0.0000 
     49 H49         0.0253   -2.3417    2.8801 H         1 UNK         0.0000 
     50 H50         1.5729   -1.1193    4.2340 H         1 UNK         0.0000 
     51 H51         1.3227    1.2980    4.5917 H         1 UNK         0.0000 
     52 H52        -0.5008   -2.2076    0.5818 H         1 UNK         0.0000 
     53 H53        -1.3591   -4.4239    0.2236 H         1 UNK         0.0000 
     54 H54        -2.9721   -3.8989    0.5210 H         1 UNK         0.0000 
     55 H55        -2.9457   -2.7049   -1.6853 H         1 UNK         0.0000 
     56 H56        -2.9332   -4.4003   -1.7942 H         1 UNK         0.0000 
     57 H57        -0.9813   -4.5887   -2.9703 H         1 UNK         0.0000 
     58 H58        -0.1765   -3.5016   -1.9463 H         1 UNK         0.0000 
     59 H59        -2.6961   -1.1582   -3.7877 H         1 UNK         0.0000 
     60 H60         3.0342   -1.7547   -1.3241 H         1 UNK         0.0000 
     61 H61         1.1421   -2.0805   -2.4740 H         1 UNK         0.0000 
     62 H62         1.5085   -0.7155   -5.2392 H         1 UNK         0.0000 
     63 H63        -1.1369    0.5800   -4.8031 H         1 UNK         0.0000 
     64 H64         0.0992    0.9293   -5.8664 H         1 UNK         0.0000 
     65 H65        -0.9210    1.9086   -2.6338 H         1 UNK         0.0000 
     66 H66         0.0257    5.8310   -2.8361 H         1 UNK         0.0000 
     67 H67        -0.3002    4.7825   -4.1983 H         1 UNK         0.0000 
     68 H68        -2.4492    4.0704   -3.2264 H         1 UNK         0.0000 
     69 H69        -2.4221    5.8146   -3.3900 H         1 UNK         0.0000 
     70 H70        -2.1622    6.1308   -0.9819 H         1 UNK         0.0000 
     71 H71        -3.3820    4.8727   -1.1759 H         1 UNK         0.0000 
     72 H72         5.6742   -0.9920    0.4246 H         1 UNK         0.0000 
@<TRIPOS>BOND
     1    1    6 nc   
     2    1    8 nc   
     3    1   23 nc   
     4    1   25 nc   
     5    1   43 nc   
     6    1   48 nc   
     7    2    3 ar   
     8    2    9 ar   
     9    2   49 1    
    10    3    4 ar   
    11    3   50 1    
    12    4   51 1    
    13    4    5 ar   
    14    5    6 1    
    15    5    7 ar   
    16    7    8 1    
    17    7    9 ar   
    18    9   10 1    
    19   10   11 2    
    20   10   12 am   BACKBONE|DICT|INTERRES
    21   12   52 1    
    22   12   13 1    
    23   13   53 1    
    24   13   54 1    
    25   13   14 1    
    26   14   55 1    
    27   14   15 1    
    28   14   56 1    
    29   15   58 1    
    30   15   16 1    
    31   15   57 1    
    32   16   17 1    
    33   16   18 1    
    34   16   33 1    
    35   18   19 am   BACKBONE|DICT|INTERRES
    36   18   59 1    
    37   19   20 2    
    38   19   21 1    
    39   21   22 ar   
    40   21   32 ar   
    41   22   23 1    
    42   22   24 ar   
    43   24   25 1    
    44   24   26 ar   
    45   26   27 1    
    46   26   31 ar   
    47   27   30 2    
    48   27   28 2    
    49   27   29 1    
    50   29   72 1    
    51   31   32 ar   
    52   31   60 1    
    53   32   61 1    
    54   33   34 2    
    55   33   35 am   BACKBONE|DICT|INTERRES
    56   35   36 1    
    57   35   62 1    
    58   36   63 1    
    59   36   37 1    
    60   36   64 1    
    61   37   38 2    
    62   37   39 am   BACKBONE|DICT|INTERRES
    63   39   40 1    
    64   39   65 1    
    65   40   41 1    
    66   40   42 1    
    67   40   44 1    
    68   42   47 am   BACKBONE|DICT|INTERRES
    69   42   43 2    
    70   44   45 1    
    71   44   66 1    
    72   44   67 1    
    73   45   46 1    
    74   45   68 1    
    75   45   69 1    
    76   46   71 1    
    77   46   70 1    
    78   46   47 1    
    79   47   48 1    
@<TRIPOS>SUBSTRUCTURE
     1 UNK         1 GROUP             0       ****    0 ROOT    
