@<TRIPOS>MOLECULE
276_c1
108   113    1
SMALL
USER_CHARGES


@<TRIPOS>ATOM
      1 O1          2.8216   -0.5518    4.3281 O.3       1 UNK         0.0000 
      2 C2          3.3498   -1.2329    3.2076 C.3       1 UNK         0.0000 
      3 C3          4.8683   -1.3681    3.3902 C.3       1 UNK         0.0000 
      4 C4          5.5273   -2.2335    2.3265 C.2       1 UNK         0.0000 
      5 C5          5.4785   -1.6743    0.9032 C.3       1 UNK         0.0000 
      6 C6          6.0838   -3.4218    2.6633 C.2       1 UNK         0.0000 
      7 C7          6.6847   -4.3394    1.7237 C.2       1 UNK         0.0000 
      8 O8          6.1525   -5.4396    1.4945 O.co2     1 UNK         0.0000 
      9 N9          7.7837   -3.9600    1.0073 N.am      1 UNK         0.0000 
     10 O10         8.1382   -4.5191   -0.1629 O.co2     1 UNK         0.0000 
     11 C11         8.8037   -3.0196    1.5531 C.3       1 UNK         0.0000 
     12 C12         9.4710   -3.4815    2.8770 C.3       1 UNK         0.0000 
     13 C13        10.9450   -3.0147    2.9911 C.3       1 UNK         0.0000 
     14 C14        11.7800   -3.3603    4.2675 C.3       1 UNK         0.0000 
     15 H15        11.6126   -2.5542    4.9856 H         1 UNK         0.0000 
     16 N16        13.2496   -3.3886    4.0384 N.am      1 UNK         0.0000 
     17 C17        13.9212   -4.5207    3.7267 C.2       1 UNK         0.0000 
     18 O18        15.1139   -4.4918    3.4690 O.2       1 UNK         0.0000 
     19 C19        11.2616   -4.6232    5.0320 C.2       1 UNK         0.0000 
     20 O20        10.3654   -4.6168    5.8690 O.2       1 UNK         0.0000 
     21 N21        11.9472   -5.7463    4.7652 N.am      1 UNK         0.0000 
     22 C22        13.0373   -5.8164    3.7644 C.3       1 UNK         0.0000 
     23 H23        13.7002   -6.6061    4.1253 H         1 UNK         0.0000 
     24 C24        12.6370   -6.1807    2.3056 C.3       1 UNK         0.0000 
     25 C25        11.3093   -6.9439    2.1000 C.3       1 UNK         0.0000 
     26 C26        10.9343   -6.9239    0.6003 C.3       1 UNK         0.0000 
     27 N27         9.6247   -7.4795    0.1780 N.am      1 UNK         0.0000 
     28 O28         8.6473   -7.3199    1.0849 O.co2     1 UNK         0.0000 
     29 C29         9.3908   -7.6471   -1.1586 C.2       1 UNK         0.0000 
     30 O30         8.2771   -7.3745   -1.6321 O.co2     1 UNK         0.0000 
     31 C31        10.4766   -8.0743   -2.0114 C.2       1 UNK         0.0000 
     32 C32        10.6810   -9.3431   -2.4357 C.2       1 UNK         0.0000 
     33 C33        11.8701   -9.6474   -3.3261 C.3       1 UNK         0.0000 
     34 C34         9.7869  -10.5454   -2.1045 C.3       1 UNK         0.0000 
     35 C35         9.6901  -11.6495   -3.1917 C.3       1 UNK         0.0000 
     36 O36         8.5273  -12.4094   -2.9019 O.3       1 UNK         0.0000 
     37 C37         7.3588  -12.1202   -3.5246 C.2       1 UNK         0.0000 
     38 O38         7.2803  -11.8267   -4.7218 O.2       1 UNK         0.0000 
     39 C39         6.1491  -12.0298   -2.5847 C.3       1 UNK         0.0000 
     40 H40         5.3555  -12.6630   -2.9967 H         1 UNK         0.0000 
     41 N41         6.5023  -12.4627   -1.2160 N.am      1 UNK         0.0000 
     42 C42         5.8103  -13.3378   -0.4727 C.2       1 UNK         0.0000 
     43 O43         4.9045  -14.0305   -0.9306 O.2       1 UNK         0.0000 
     44 C44         6.1570  -13.4048    1.0029 C.3       1 UNK         0.0000 
     45 C45         5.6355  -10.5600   -2.5731 C.3       1 UNK         0.0000 
     46 C46         4.5376  -10.3226   -1.5200 C.3       1 UNK         0.0000 
     47 C47         3.9458   -8.9034   -1.4876 C.3       1 UNK         0.0000 
     48 N48         4.8524   -7.7891   -1.0781 N.am      1 UNK         0.0000 
     49 O49         5.8262   -8.1319   -0.2316 O.co2     1 UNK         0.0000 
     50 C50         4.5616   -6.4967   -1.3941 C.2       1 UNK         0.0000 
     51 O51         5.4395   -5.6257   -1.3187 O.co2     1 UNK         0.0000 
     52 C52         3.1359   -6.2467   -1.4219 C.2       1 UNK         0.0000 
     53 C53         2.3386   -5.8750   -2.4437 C.2       1 UNK         0.0000 
     54 C54         2.8035   -5.3349   -3.7922 C.3       1 UNK         0.0000 
     55 C55         0.8407   -6.0985   -2.2102 C.3       1 UNK         0.0000 
     56 C56        -0.1684   -5.8583   -3.3449 C.3       1 UNK         0.0000 
     57 O57        -0.5317   -4.4909   -3.3899 O.3       1 UNK         0.0000 
     58 H58         1.8635   -0.5224    4.2590 H         1 UNK         0.0000 
     59 H59         2.8767   -2.2167    3.1234 H         1 UNK         0.0000 
     60 H60         3.1095   -0.6783    2.2964 H         1 UNK         0.0000 
     61 H61         5.0534   -1.8067    4.3734 H         1 UNK         0.0000 
     62 H62         5.3376   -0.3831    3.3977 H         1 UNK         0.0000 
     63 H63         5.0088   -0.6923    0.8571 H         1 UNK         0.0000 
     64 H64         4.9134   -2.3381    0.2497 H         1 UNK         0.0000 
     65 H65         6.4772   -1.5679    0.4818 H         1 UNK         0.0000 
     66 H66         6.0873   -3.7632    3.6913 H         1 UNK         0.0000 
     67 H67         8.3925   -2.0149    1.6745 H         1 UNK         0.0000 
     68 H68         9.6026   -2.8914    0.8112 H         1 UNK         0.0000 
     69 H69         8.8894   -3.1180    3.7251 H         1 UNK         0.0000 
     70 H70         9.4336   -4.5662    2.9403 H         1 UNK         0.0000 
     71 H71        10.9823   -1.9343    2.8508 H         1 UNK         0.0000 
     72 H72        11.4733   -3.4082    2.1249 H         1 UNK         0.0000 
     73 H73        13.7954   -2.5405    4.0503 H         1 UNK         0.0000 
     74 H74        11.6690   -6.5715    5.2715 H         1 UNK         0.0000 
     75 H75        12.5665   -5.2645    1.7185 H         1 UNK         0.0000 
     76 H76        13.4468   -6.7471    1.8403 H         1 UNK         0.0000 
     77 H77        10.5224   -6.4657    2.6754 H         1 UNK         0.0000 
     78 H78        11.3847   -7.9630    2.4748 H         1 UNK         0.0000 
     79 H79        10.9487   -5.8730    0.2911 H         1 UNK         0.0000 
     80 H80        11.7763   -7.3618    0.0580 H         1 UNK         0.0000 
     81 H81        11.1482   -7.2697   -2.2904 H         1 UNK         0.0000 
     82 H82        12.6317   -8.8721   -3.2370 H         1 UNK         0.0000 
     83 H83        11.5265   -9.6705   -4.3627 H         1 UNK         0.0000 
     84 H84        12.3154  -10.6091   -3.0704 H         1 UNK         0.0000 
     85 H85         8.7822  -10.1657   -1.9147 H         1 UNK         0.0000 
     86 H86        10.1130  -11.0059   -1.1686 H         1 UNK         0.0000 
     87 H87        10.5511  -12.3206   -3.1391 H         1 UNK         0.0000 
     88 H88         9.6660  -11.2221   -4.1981 H         1 UNK         0.0000 
     89 H89         7.2024  -11.9031   -0.7521 H         1 UNK         0.0000 
     90 H90         6.9085  -12.6602    1.2701 H         1 UNK         0.0000 
     91 H91         6.5322  -14.3937    1.2687 H         1 UNK         0.0000 
     92 H92         5.2623  -13.2044    1.5950 H         1 UNK         0.0000 
     93 H93         5.2703  -10.2865   -3.5660 H         1 UNK         0.0000 
     94 H94         6.4675   -9.8831   -2.3528 H         1 UNK         0.0000 
     95 H95         3.7363  -11.0397   -1.6899 H         1 UNK         0.0000 
     96 H96         4.9236  -10.5378   -0.5261 H         1 UNK         0.0000 
     97 H97         3.1019   -8.9179   -0.7923 H         1 UNK         0.0000 
     98 H98         3.5207   -8.6876   -2.4770 H         1 UNK         0.0000 
     99 H99         2.6738   -6.5443   -0.4910 H         1 UNK         0.0000 
    100 H100        3.8850   -5.1978   -3.8291 H         1 UNK         0.0000 
    101 H101        2.3538   -4.3576   -3.9775 H         1 UNK         0.0000 
    102 H102        2.5301   -5.9980   -4.6123 H         1 UNK         0.0000 
    103 H103        0.5226   -5.5749   -1.3058 H         1 UNK         0.0000 
    104 H104        0.7609   -7.1628   -1.9751 H         1 UNK         0.0000 
    105 H105       -1.0720   -6.4417   -3.1368 H         1 UNK         0.0000 
    106 H106        0.1984   -6.2008   -4.3176 H         1 UNK         0.0000 
    107 H107       -1.3987   -4.4036   -3.8026 H         1 UNK         0.0000 
    108 Fe108       7.1099   -6.4149   -0.1235 Fe        1 UNK         0.0000 
@<TRIPOS>BOND
     1    1    2 1    
     2    1   58 1    
     3    2    3 1    
     4    2   59 1    
     5    2   60 1    
     6    3    4 1    
     7    3   61 1    
     8    3   62 1    
     9    4    5 1    
    10    4    6 2    
    11    5   63 1    
    12    5   64 1    
    13    5   65 1    
    14    6    7 1    
    15    6   66 1    
    16    7    8 2    
    17    7    9 am   BACKBONE|DICT|INTERRES
    18    8  108 nc   
    19    9   10 1    
    20    9   11 1    
    21   10  108 nc   
    22   11   12 1    
    23   11   67 1    
    24   11   68 1    
    25   12   13 1    
    26   12   69 1    
    27   12   70 1    
    28   13   14 1    
    29   13   71 1    
    30   13   72 1    
    31   14   15 1    
    32   14   16 1    
    33   14   19 1    
    34   16   17 am   BACKBONE|DICT|INTERRES
    35   16   73 1    
    36   17   18 2    
    37   17   22 1    
    38   19   20 2    
    39   19   21 am   BACKBONE|DICT|INTERRES
    40   21   22 1    
    41   21   74 1    
    42   22   24 1    
    43   22   23 1    
    44   24   25 1    
    45   24   75 1    
    46   24   76 1    
    47   25   26 1    
    48   25   77 1    
    49   25   78 1    
    50   26   27 1    
    51   26   79 1    
    52   26   80 1    
    53   27   28 1    
    54   27   29 am   BACKBONE|DICT|INTERRES
    55   28  108 nc   
    56   29   30 2    
    57   29   31 1    
    58   30  108 nc   
    59   31   32 2    
    60   31   81 1    
    61   32   33 1    
    62   32   34 1    
    63   33   82 1    
    64   33   83 1    
    65   33   84 1    
    66   34   35 1    
    67   34   85 1    
    68   34   86 1    
    69   35   36 1    
    70   35   87 1    
    71   35   88 1    
    72   36   37 1    
    73   37   38 2    
    74   37   39 1    
    75   39   40 1    
    76   39   41 1    
    77   39   45 1    
    78   41   42 am   BACKBONE|DICT|INTERRES
    79   41   89 1    
    80   42   43 2    
    81   42   44 1    
    82   44   90 1    
    83   44   91 1    
    84   44   92 1    
    85   45   46 1    
    86   45   93 1    
    87   45   94 1    
    88   46   47 1    
    89   46   95 1    
    90   46   96 1    
    91   47   48 1    
    92   47   97 1    
    93   47   98 1    
    94   48   49 1    
    95   48   50 am   BACKBONE|DICT|INTERRES
    96   49  108 nc   
    97   50   51 2    
    98   50   52 1    
    99   51  108 nc   
   100   52   53 2    
   101   52   99 1    
   102   53   54 1    
   103   53   55 1    
   104   54  100 1    
   105   54  101 1    
   106   54  102 1    
   107   55   56 1    
   108   55  103 1    
   109   55  104 1    
   110   56   57 1    
   111   56  105 1    
   112   56  106 1    
   113   57  107 1    
@<TRIPOS>SUBSTRUCTURE
     1 UNK         1 GROUP             0       ****    0 ROOT    
