@<TRIPOS>MOLECULE
120_c2
71   80    1
SMALL
USER_CHARGES


@<TRIPOS>ATOM
      1 Fe1         0.2810   -0.1588    0.5772 Fe        1 UNK         0.0000 
      2 O2         -0.5188    2.7589   -0.1908 O.co2     1 UNK         0.0000 
      3 C3         -0.3191    3.9121   -0.6382 C.2       1 UNK         0.0000 
      4 O4         -1.1723    4.5869   -1.2764 O.co2     1 UNK         0.0000 
      5 C5          1.0567    4.6228   -0.3811 C.3       1 UNK         0.0000 
      6 H6          0.9143    5.6731   -0.6315 H         1 UNK         0.0000 
      7 C7          1.4689    4.5624    1.1116 C.3       1 UNK         0.0000 
      8 S8          3.2672    4.3843    1.0893 S.3       1 UNK         0.0000 
      9 C9          3.1172    3.3788   -0.4138 C.3       1 UNK         0.0000 
     10 H10         4.1027    3.4130   -0.8745 H         1 UNK         0.0000 
     11 N11         2.2059    4.1853   -1.2287 N.3       1 UNK         0.0000 
     12 C12         1.9363    3.6768   -2.5746 C.3       1 UNK         0.0000 
     13 C13         2.6764    1.8618   -0.2283 C.3       1 UNK         0.0000 
     14 H14         1.7338    1.6753   -0.7456 H         1 UNK         0.0000 
     15 N15         2.4240    1.4922    1.1389 N.pl3     1 UNK         0.0000 
     16 C16         3.3445    0.7837    1.6361 C.2       1 UNK         0.0000 
     17 S17         4.7279    0.3898    0.5702 S.3       1 UNK         0.0000 
     18 C18         3.6885    0.8711   -0.8140 C.3       1 UNK         0.0000 
     19 C19         3.2988    0.2502    2.9947 C.ar      1 UNK         0.0000 
     20 C20         2.8196   -1.0526    3.2680 C.ar      1 UNK         0.0000 
     21 O21         2.4226   -1.8568    2.3506 O.co2     1 UNK         0.0000 
     22 C22         2.7222   -1.4758    4.5958 C.ar      1 UNK         0.0000 
     23 C23         3.0761   -0.6285    5.6473 C.ar      1 UNK         0.0000 
     24 C24         3.5344    0.6617    5.3741 C.ar      1 UNK         0.0000 
     25 C25         3.6460    1.0986    4.0554 C.ar      1 UNK         0.0000 
     26 H26         1.0459    3.7037    1.6386 H         1 UNK         0.0000 
     27 H27         1.2061    5.4647    1.6575 H         1 UNK         0.0000 
     28 H28         1.3895    2.7350   -2.5450 H         1 UNK         0.0000 
     29 H29         1.3279    4.3858   -3.1340 H         1 UNK         0.0000 
     30 H30         2.8576    3.4989   -3.1272 H         1 UNK         0.0000 
     31 H31         4.2573    1.2768   -1.6489 H         1 UNK         0.0000 
     32 H32         3.2081   -0.0484   -1.1517 H         1 UNK         0.0000 
     33 H33         2.9581   -0.9615    6.6662 H         1 UNK         0.0000 
     34 H34         3.7660    1.3405    6.1766 H         1 UNK         0.0000 
     35 O35         1.2129   -0.0707   -2.5661 O.co2     1 UNK         0.0000 
     36 C36         0.9572    0.1117   -3.7764 C.2       1 UNK         0.0000 
     37 O37         1.7767    0.5813   -4.6151 O.co2     1 UNK         0.0000 
     38 C38        -0.4436   -0.2992   -4.3483 C.3       1 UNK         0.0000 
     39 H39        -0.3443   -0.3177   -5.4322 H         1 UNK         0.0000 
     40 C40        -0.8455   -1.7277   -3.9061 C.3       1 UNK         0.0000 
     41 S41        -2.6437   -1.6639   -3.7761 S.3       1 UNK         0.0000 
     42 C42        -2.4947    0.0235   -3.1259 C.3       1 UNK         0.0000 
     43 H43        -3.4818    0.4600   -3.2747 H         1 UNK         0.0000 
     44 N44        -1.5758    0.6398   -4.0870 N.3       1 UNK         0.0000 
     45 C45        -1.2858    2.0576   -3.8675 C.3       1 UNK         0.0000 
     46 C46        -2.0764    0.1770   -1.5947 C.3       1 UNK         0.0000 
     47 H47        -1.1068    0.6716   -1.5185 H         1 UNK         0.0000 
     48 N48        -1.9123   -1.0791   -0.9071 N.pl3     1 UNK         0.0000 
     49 C49        -2.9147   -1.3806   -0.1945 C.2       1 UNK         0.0000 
     50 S50        -4.2337   -0.1677   -0.1097 S.3       1 UNK         0.0000 
     51 C51        -3.0799    1.0225   -0.8038 C.3       1 UNK         0.0000 
     52 C52        -3.0260   -2.6325    0.5531 C.ar      1 UNK         0.0000 
     53 C53        -2.7915   -2.7151    1.9436 C.ar      1 UNK         0.0000 
     54 O54        -2.5138   -1.6937    2.6626 O.co2     1 UNK         0.0000 
     55 C55        -2.7998   -3.9646    2.5631 C.ar      1 UNK         0.0000 
     56 C56        -3.0514   -5.1271    1.8300 C.ar      1 UNK         0.0000 
     57 C57        -3.2935   -5.0439    0.4595 C.ar      1 UNK         0.0000 
     58 C58        -3.2753   -3.8043   -0.1771 C.ar      1 UNK         0.0000 
     59 H59        -0.4423   -2.0028   -2.9284 H         1 UNK         0.0000 
     60 H60        -0.5616   -2.4915   -4.6251 H         1 UNK         0.0000 
     61 H61        -0.6819    2.4538   -4.6826 H         1 UNK         0.0000 
     62 H62        -2.1982    2.6472   -3.7923 H         1 UNK         0.0000 
     63 H63        -0.7254    2.2081   -2.9455 H         1 UNK         0.0000 
     64 H64        -3.5737    1.7843   -1.4056 H         1 UNK         0.0000 
     65 H65        -2.6168    1.5205    0.0483 H         1 UNK         0.0000 
     66 H66        -3.0228   -6.0842    2.3220 H         1 UNK         0.0000 
     67 H67        -3.4581   -5.9351   -0.1226 H         1 UNK         0.0000 
     68 H68         3.9519    2.1155    3.8374 H         1 UNK         0.0000 
     69 H69         2.3203   -2.4558    4.7972 H         1 UNK         0.0000 
     70 H70        -2.5588   -4.0234    3.6116 H         1 UNK         0.0000 
     71 H71        -3.4055   -3.7412   -1.2500 H         1 UNK         0.0000 
@<TRIPOS>BOND
     1    1    2 nc   
     2    1   15 nc   
     3    1   21 nc   
     4    1   35 nc   
     5    1   48 nc   
     6    1   54 nc   
     7    2    3 1    
     8    3    4 2    
     9    3    5 1    
    10    5    6 1    
    11    5    7 1    
    12    5   11 1    
    13    7   26 1    
    14    7    8 1    
    15    7   27 1    
    16    8    9 1    
    17    9   10 1    
    18    9   13 1    
    19    9   11 1    
    20   11   12 1    
    21   12   29 1    
    22   12   28 1    
    23   12   30 1    
    24   13   14 1    
    25   13   15 1    
    26   13   18 1    
    27   15   16 2    
    28   16   19 1    
    29   16   17 1    
    30   17   18 1    
    31   18   31 1    
    32   18   32 1    
    33   19   25 ar   
    34   19   20 ar   
    35   20   21 1    
    36   20   22 ar   
    37   22   23 ar   
    38   22   69 1    
    39   23   24 ar   
    40   23   33 1    
    41   24   34 1    
    42   24   25 ar   
    43   25   68 1    
    44   35   36 1    
    45   36   37 2    
    46   36   38 1    
    47   38   44 1    
    48   38   39 1    
    49   38   40 1    
    50   40   41 1    
    51   40   59 1    
    52   40   60 1    
    53   41   42 1    
    54   42   46 1    
    55   42   43 1    
    56   42   44 1    
    57   44   45 1    
    58   45   63 1    
    59   45   61 1    
    60   45   62 1    
    61   46   47 1    
    62   46   51 1    
    63   46   48 1    
    64   48   49 2    
    65   49   52 1    
    66   49   50 1    
    67   50   51 1    
    68   51   65 1    
    69   51   64 1    
    70   52   53 ar   
    71   52   58 ar   
    72   53   54 1    
    73   53   55 ar   
    74   55   56 ar   
    75   55   70 1    
    76   56   66 1    
    77   56   57 ar   
    78   57   58 ar   
    79   57   67 1    
    80   58   71 1    
@<TRIPOS>SUBSTRUCTURE
     1 UNK         1 GROUP             0       ****    0 ROOT    
