@<TRIPOS>MOLECULE
263_E_c1
147   152    1
SMALL
USER_CHARGES


@<TRIPOS>ATOM
      1 C1         16.9371  -23.1431  -11.2148 C.3       1 UNK         0.0000 
      2 C2         18.0409  -22.7597  -10.2451 C.2       1 UNK         0.0000 
      3 O3         18.5567  -21.6210  -10.2624 O.co2     1 UNK         0.0000 
      4 N4         18.4905  -23.6124   -9.2863 N.am      1 UNK         0.0000 
      5 O5         19.5613  -23.3032   -8.6000 O.co2     1 UNK         0.0000 
      6 C6         17.8067  -24.7979   -8.7261 C.3       1 UNK         0.0000 
      7 C7         17.9816  -25.0514   -7.1716 C.3       1 UNK         0.0000 
      8 C8         17.2985  -24.0381   -6.2014 C.3       1 UNK         0.0000 
      9 C9         18.1079  -23.0684   -5.2276 C.3       1 UNK         0.0000 
     10 H10        18.2200  -23.5831   -4.2633 H         1 UNK         0.0000 
     11 C11        19.6043  -22.7090   -5.6518 C.2       1 UNK         0.0000 
     12 O12        19.7877  -21.6884   -6.4047 O.co2     1 UNK         0.0000 
     13 O13        20.4502  -23.4810   -5.1558 O.co2     1 UNK         0.0000 
     14 N14        17.2348  -21.8842   -5.0193 N.am      1 UNK         0.0000 
     15 C15        17.5375  -20.5803   -4.8488 C.2       1 UNK         0.0000 
     16 O16        18.2802  -20.1531   -3.9617 O.2       1 UNK         0.0000 
     17 C17        16.8704  -19.5785   -5.8484 C.3       1 UNK         0.0000 
     18 H18        15.9621  -19.2411   -5.3451 H         1 UNK         0.0000 
     19 C19        16.4432  -20.1909   -7.2697 C.3       1 UNK         0.0000 
     20 O20        17.1702  -21.2951   -7.8048 O.co2     1 UNK         0.0000 
     21 N21        17.7375  -18.3881   -5.9588 N.am      1 UNK         0.0000 
     22 C22        17.3574  -17.1444   -6.3078 C.2       1 UNK         0.0000 
     23 O23        16.1806  -16.8222   -6.4702 O.2       1 UNK         0.0000 
     24 C24        18.4222  -16.0346   -6.5039 C.3       1 UNK         0.0000 
     25 H25        17.9311  -15.2781   -7.1152 H         1 UNK         0.0000 
     26 C26        19.7061  -16.4422   -7.2842 C.3       1 UNK         0.0000 
     27 C27        19.5182  -16.6312   -8.8107 C.3       1 UNK         0.0000 
     28 C28        20.5486  -17.6089   -9.4582 C.3       1 UNK         0.0000 
     29 N29        20.4484  -19.0330   -9.0533 N.am      1 UNK         0.0000 
     30 O30        19.3026  -19.3495   -8.4718 O.co2     1 UNK         0.0000 
     31 C31        21.3893  -19.9665   -9.3061 C.2       1 UNK         0.0000 
     32 O32        21.1281  -21.1387   -8.9928 O.co2     1 UNK         0.0000 
     33 C33        22.6946  -19.6230  -10.0149 C.3       1 UNK         0.0000 
     34 N34        18.7032  -15.3312   -5.2491 N.am      1 UNK         0.0000 
     35 C35        19.4651  -15.7842   -4.2470 C.2       1 UNK         0.0000 
     36 O36        20.0523  -16.8583   -4.2625 O.2       1 UNK         0.0000 
     37 C37        19.7306  -14.8193   -3.0810 C.3       1 UNK         0.0000 
     38 H38        20.4327  -15.3397   -2.4276 H         1 UNK         0.0000 
     39 C39        18.4647  -14.5286   -2.2372 C.3       1 UNK         0.0000 
     40 O40        18.8099  -13.9559   -0.9839 O.3       1 UNK         0.0000 
     41 N41        20.4592  -13.6448   -3.5948 N.am      1 UNK         0.0000 
     42 C42        20.0910  -12.3592   -3.7296 C.2       1 UNK         0.0000 
     43 O43        19.0098  -11.9091   -3.3608 O.2       1 UNK         0.0000 
     44 C44        21.0628  -11.4273   -4.4975 C.3       1 UNK         0.0000 
     45 H45        20.7073  -10.4205   -4.2765 H         1 UNK         0.0000 
     46 C46        20.8465  -11.7278   -6.0089 C.3       1 UNK         0.0000 
     47 C47        21.5497  -10.8050   -7.0055 C.2       1 UNK         0.0000 
     48 O48        22.4138  -11.2990   -7.7278 O.2       1 UNK         0.0000 
     49 C49        21.2469   -9.3022   -7.0652 C.3       1 UNK         0.0000 
     50 H50        21.0139   -9.1286   -8.1184 H         1 UNK         0.0000 
     51 C51        22.5554   -8.4887   -6.7587 C.3       1 UNK         0.0000 
     52 H52        23.4542   -8.9715   -7.1413 H         1 UNK         0.0000 
     53 O53        22.4202   -7.2618   -7.4864 O.3       1 UNK         0.0000 
     54 C54        22.7574   -8.1720   -5.2341 C.2       1 UNK         0.0000 
     55 O55        22.5390   -7.0358   -4.8199 O.2       1 UNK         0.0000 
     56 N56        23.1575   -9.0901   -4.3393 N.am      1 UNK         0.0000 
     57 C57        23.5714  -10.4820   -4.5260 C.3       1 UNK         0.0000 
     58 C58        22.5423  -11.5134   -3.9859 C.3       1 UNK         0.0000 
     59 N59        20.0792   -8.7966   -6.2746 N.3       1 UNK         0.0000 
     60 C60        18.7250   -9.2855   -6.5482 C.3       1 UNK         0.0000 
     61 C61        17.6303   -8.2593   -6.1840 C.2       1 UNK         0.0000 
     62 O62        16.8405   -7.8920   -7.0523 O.2       1 UNK         0.0000 
     63 C63        17.5088   -7.6677   -4.7643 C.3       1 UNK         0.0000 
     64 C64        18.3596   -8.2913   -3.6245 C.3       1 UNK         0.0000 
     65 C65        18.4271   -7.4465   -2.3340 C.3       1 UNK         0.0000 
     66 C66        17.1375   -7.3426   -1.4928 C.3       1 UNK         0.0000 
     67 C67        16.0810   -6.3535   -2.0366 C.3       1 UNK         0.0000 
     68 C68        14.9717   -5.9899   -1.0292 C.3       1 UNK         0.0000 
     69 C69        15.4589   -5.1194    0.1512 C.3       1 UNK         0.0000 
     70 C70        14.3398   -4.6934    1.1180 C.3       1 UNK         0.0000 
     71 C71        13.2711   -3.7791    0.4792 C.3       1 UNK         0.0000 
     72 C72        12.3139   -3.1335    1.4986 C.3       1 UNK         0.0000 
     73 C73        11.4715   -4.1476    2.2972 C.3       1 UNK         0.0000 
     74 C74        10.4914   -3.4640    3.2713 C.3       1 UNK         0.0000 
     75 C75         9.6109   -4.4447    4.0723 C.3       1 UNK         0.0000 
     76 C76        10.3946   -5.3381    5.0550 C.3       1 UNK         0.0000 
     77 C77         9.4743   -6.2262    5.9044 C.3       1 UNK         0.0000 
     78 H78        16.7335  -22.3069  -11.8801 H         1 UNK         0.0000 
     79 H79        16.0179  -23.4033  -10.6976 H         1 UNK         0.0000 
     80 H80        17.2858  -23.9856  -11.8027 H         1 UNK         0.0000 
     81 H81        18.2004  -25.6650   -9.2598 H         1 UNK         0.0000 
     82 H82        16.7386  -24.7565   -8.9606 H         1 UNK         0.0000 
     83 H83        19.0346  -25.1814   -6.9163 H         1 UNK         0.0000 
     84 H84        17.5529  -26.0264   -6.9669 H         1 UNK         0.0000 
     85 H85        16.6337  -24.6071   -5.5547 H         1 UNK         0.0000 
     86 H86        16.5792  -23.4830   -6.7999 H         1 UNK         0.0000 
     87 H87        16.5170  -21.9064   -5.7399 H         1 UNK         0.0000 
     88 H88        16.3915  -19.3602   -7.9753 H         1 UNK         0.0000 
     89 H89        15.3809  -20.4244   -7.1833 H         1 UNK         0.0000 
     90 H90        18.6848  -18.5663   -5.6572 H         1 UNK         0.0000 
     91 H91        20.1083  -17.3554   -6.8438 H         1 UNK         0.0000 
     92 H92        20.4722  -15.6843   -7.1288 H         1 UNK         0.0000 
     93 H93        19.5786  -15.6624   -9.3005 H         1 UNK         0.0000 
     94 H94        18.5079  -16.9865   -9.0284 H         1 UNK         0.0000 
     95 H95        20.4312  -17.5606  -10.5425 H         1 UNK         0.0000 
     96 H96        21.5568  -17.2360   -9.2501 H         1 UNK         0.0000 
     97 H97        22.4937  -19.1506  -10.9713 H         1 UNK         0.0000 
     98 H98        23.2749  -20.5236  -10.2005 H         1 UNK         0.0000 
     99 H99        23.2920  -18.9558   -9.4042 H         1 UNK         0.0000 
    100 H100       18.2499  -14.4384   -5.1448 H         1 UNK         0.0000 
    101 H101       17.9482  -15.4690   -2.0402 H         1 UNK         0.0000 
    102 H102       17.7421  -13.9096   -2.7714 H         1 UNK         0.0000 
    103 H103       18.0579  -13.4416   -0.6768 H         1 UNK         0.0000 
    104 H104       21.3427  -13.9101   -3.9960 H         1 UNK         0.0000 
    105 H105       19.7896  -11.7337   -6.2710 H         1 UNK         0.0000 
    106 H106       21.1999  -12.7387   -6.2220 H         1 UNK         0.0000 
    107 H107       22.3613   -6.5508   -6.8303 H         1 UNK         0.0000 
    108 H108       23.2363   -8.7046   -3.4090 H         1 UNK         0.0000 
    109 H109       24.5159  -10.6093   -3.9930 H         1 UNK         0.0000 
    110 H110       23.8153  -10.6794   -5.5715 H         1 UNK         0.0000 
    111 H111       22.5328  -11.4060   -2.8988 H         1 UNK         0.0000 
    112 H112       22.9372  -12.5117   -4.1753 H         1 UNK         0.0000 
    113 H113       20.0829   -7.7829   -6.3703 H         1 UNK         0.0000 
    114 H114       18.5272  -10.1876   -5.9719 H         1 UNK         0.0000 
    115 H115       18.6194   -9.5396   -7.6052 H         1 UNK         0.0000 
    116 H116       17.7479   -6.6066   -4.8480 H         1 UNK         0.0000 
    117 H117       16.4533   -7.7283   -4.5093 H         1 UNK         0.0000 
    118 H118       19.3949   -8.4058   -3.9363 H         1 UNK         0.0000 
    119 H119       18.0091   -9.3000   -3.3971 H         1 UNK         0.0000 
    120 H120       18.8022   -6.4472   -2.5640 H         1 UNK         0.0000 
    121 H121       19.1955   -7.8877   -1.6985 H         1 UNK         0.0000 
    122 H122       17.4404   -7.0219   -0.4966 H         1 UNK         0.0000 
    123 H123       16.6948   -8.3307   -1.3552 H         1 UNK         0.0000 
    124 H124       15.5948   -6.7804   -2.9112 H         1 UNK         0.0000 
    125 H125       16.5660   -5.4377   -2.3827 H         1 UNK         0.0000 
    126 H126       14.4991   -6.9003   -0.6536 H         1 UNK         0.0000 
    127 H127       14.1916   -5.4552   -1.5733 H         1 UNK         0.0000 
    128 H128       16.2077   -5.6654    0.7256 H         1 UNK         0.0000 
    129 H129       15.9680   -4.2313   -0.2309 H         1 UNK         0.0000 
    130 H130       14.7948   -4.1756    1.9644 H         1 UNK         0.0000 
    131 H131       13.8692   -5.5861    1.5337 H         1 UNK         0.0000 
    132 H132       13.7665   -2.9849   -0.0816 H         1 UNK         0.0000 
    133 H133       12.6870   -4.3399   -0.2517 H         1 UNK         0.0000 
    134 H134       11.6459   -2.4526    0.9678 H         1 UNK         0.0000 
    135 H135       12.8870   -2.5095    2.1878 H         1 UNK         0.0000 
    136 H136       10.9167   -4.7886    1.6089 H         1 UNK         0.0000 
    137 H137       12.1355   -4.8055    2.8568 H         1 UNK         0.0000 
    138 H138        9.8409   -2.7921    2.7067 H         1 UNK         0.0000 
    139 H139       11.0458   -2.8255    3.9632 H         1 UNK         0.0000 
    140 H140        9.0387   -5.0675    3.3810 H         1 UNK         0.0000 
    141 H141        8.8720   -3.8654    4.6296 H         1 UNK         0.0000 
    142 H142       11.0919   -5.9745    4.5097 H         1 UNK         0.0000 
    143 H143       11.0039   -4.7151    5.7118 H         1 UNK         0.0000 
    144 H144       10.0511   -6.8457    6.5903 H         1 UNK         0.0000 
    145 H145        8.8790   -6.8937    5.2803 H         1 UNK         0.0000 
    146 H146        8.7854   -5.6279    6.5020 H         1 UNK         0.0000 
    147 Fe147      19.2304  -21.3731   -8.3642 Fe        1 UNK         0.0000 
@<TRIPOS>BOND
     1    1    2 1    
     2    1   78 1    
     3    1   79 1    
     4    1   80 1    
     5    2    3 2    
     6    2    4 am   BACKBONE|DICT|INTERRES
     7    3  147 nc   
     8    4    5 1    
     9    4    6 1    
    10    5  147 nc   
    11    6    7 1    
    12    6   81 1    
    13    6   82 1    
    14    7    8 1    
    15    7   83 1    
    16    7   84 1    
    17    8    9 1    
    18    8   85 1    
    19    8   86 1    
    20    9   10 1    
    21    9   11 1    
    22    9   14 1    
    23   11   12 1    
    24   11   13 2    
    25   12  147 nc   
    26   14   15 am   BACKBONE|DICT|INTERRES
    27   14   87 1    
    28   15   16 2    
    29   15   17 1    
    30   17   19 1    
    31   17   21 1    
    32   17   18 1    
    33   19   20 1    
    34   19   88 1    
    35   19   89 1    
    36   20  147 nc   
    37   21   22 am   BACKBONE|DICT|INTERRES
    38   21   90 1    
    39   22   23 2    
    40   22   24 1    
    41   24   26 1    
    42   24   34 1    
    43   24   25 1    
    44   26   27 1    
    45   26   91 1    
    46   26   92 1    
    47   27   28 1    
    48   27   93 1    
    49   27   94 1    
    50   28   29 1    
    51   28   95 1    
    52   28   96 1    
    53   29   30 1    
    54   29   31 am   BACKBONE|DICT|INTERRES
    55   30  147 nc   
    56   31   32 2    
    57   31   33 1    
    58   32  147 nc   
    59   33   97 1    
    60   33   98 1    
    61   33   99 1    
    62   34   35 am   BACKBONE|DICT|INTERRES
    63   34  100 1    
    64   35   36 2    
    65   35   37 1    
    66   37   39 1    
    67   37   41 1    
    68   37   38 1    
    69   39   40 1    
    70   39  101 1    
    71   39  102 1    
    72   40  103 1    
    73   41   42 am   BACKBONE|DICT|INTERRES
    74   41  104 1    
    75   42   43 2    
    76   42   44 1    
    77   44   46 1    
    78   44   58 1    
    79   44   45 1    
    80   46   47 1    
    81   46  105 1    
    82   46  106 1    
    83   47   48 2    
    84   47   49 1    
    85   49   51 1    
    86   49   59 1    
    87   49   50 1    
    88   51   54 1    
    89   51   53 1    
    90   51   52 1    
    91   53  107 1    
    92   54   55 2    
    93   54   56 am   BACKBONE|DICT|INTERRES
    94   56   57 1    
    95   56  108 1    
    96   57   58 1    
    97   57  109 1    
    98   57  110 1    
    99   58  111 1    
   100   58  112 1    
   101   59   60 1    
   102   59  113 1    
   103   60   61 1    
   104   60  114 1    
   105   60  115 1    
   106   61   62 2    
   107   61   63 1    
   108   63   64 1    
   109   63  116 1    
   110   63  117 1    
   111   64   65 1    
   112   64  118 1    
   113   64  119 1    
   114   65   66 1    
   115   65  120 1    
   116   65  121 1    
   117   66   67 1    
   118   66  122 1    
   119   66  123 1    
   120   67   68 1    
   121   67  124 1    
   122   67  125 1    
   123   68   69 1    
   124   68  126 1    
   125   68  127 1    
   126   69   70 1    
   127   69  128 1    
   128   69  129 1    
   129   70   71 1    
   130   70  130 1    
   131   70  131 1    
   132   71   72 1    
   133   71  132 1    
   134   71  133 1    
   135   72   73 1    
   136   72  134 1    
   137   72  135 1    
   138   73   74 1    
   139   73  136 1    
   140   73  137 1    
   141   74   75 1    
   142   74  138 1    
   143   74  139 1    
   144   75   76 1    
   145   75  140 1    
   146   75  141 1    
   147   76   77 1    
   148   76  142 1    
   149   76  143 1    
   150   77  144 1    
   151   77  145 1    
   152   77  146 1    
@<TRIPOS>SUBSTRUCTURE
     1 UNK         1 GROUP             0       ****    0 ROOT    
