@<TRIPOS>MOLECULE
068_c1
88   93    1
SMALL
USER_CHARGES


@<TRIPOS>ATOM
      1 Fe1         0.0000    0.0000    0.0000 Fe        1 UNK         0.0000 
      2 C2          4.6785   -0.3402    0.1566 C.3       1 UNK         0.0000 
      3 C3          4.8403    1.1744   -0.0453 C.3       1 UNK         0.0000 
      4 C4          5.6265    1.4068   -1.3483 C.3       1 UNK         0.0000 
      5 C5          3.5591    2.0309   -0.0421 C.2       1 UNK         0.0000 
      6 C6          3.7542    3.4252   -0.0554 C.2       1 UNK         0.0000 
      7 N7          2.7046    4.2751   -0.0518 N.2       1 UNK         0.0000 
      8 C8          1.4255    3.8370   -0.0346 C.2       1 UNK         0.0000 
      9 C9          1.1817    2.4530   -0.0152 C.2       1 UNK         0.0000 
     10 O10         0.0000    2.0800    0.0000 O.co2     1 UNK         0.0000 
     11 N11         2.2685    1.5372   -0.0154 N.2       1 UNK         0.0000 
     12 O12         2.0733    0.1669    0.0000 O.co2     1 UNK         0.0000 
     13 C13         0.2969    4.8571   -0.0365 C.3       1 UNK         0.0000 
     14 C14         0.3754    5.7410    1.2125 C.3       1 UNK         0.0000 
     15 C15         0.3509    5.7085   -1.3091 C.3       1 UNK         0.0000 
     16 H16         4.1605   -0.5511    1.1166 H         1 UNK         0.0000 
     17 H17         5.6786   -0.8208    0.2138 H         1 UNK         0.0000 
     18 H18         4.1377   -0.8100   -0.6926 H         1 UNK         0.0000 
     19 H19         5.4587    1.5237    0.8114 H         1 UNK         0.0000 
     20 H20         6.5865    0.8487   -1.3260 H         1 UNK         0.0000 
     21 H21         5.0322    1.0626   -2.2223 H         1 UNK         0.0000 
     22 H22         5.8750    2.4776   -1.4944 H         1 UNK         0.0000 
     23 H23         4.7499    3.8473   -0.0603 H         1 UNK         0.0000 
     24 H24        -0.6944    4.3539   -0.0205 H         1 UNK         0.0000 
     25 H25        -0.4643    6.4689    1.2202 H         1 UNK         0.0000 
     26 H26         1.3330    6.3034    1.2422 H         1 UNK         0.0000 
     27 H27         0.2981    5.1134    2.1262 H         1 UNK         0.0000 
     28 H28        -0.4883    6.4369   -1.3189 H         1 UNK         0.0000 
     29 H29         0.2551    5.0577   -2.2046 H         1 UNK         0.0000 
     30 H30         1.3082    6.2689   -1.3724 H         1 UNK         0.0000 
     31 C31         0.2372    0.4332    4.6615 C.3       1 UNK         0.0000 
     32 C32         0.1000   -1.0872    4.8436 C.3       1 UNK         0.0000 
     33 C33        -1.1616   -1.3591    5.6831 C.3       1 UNK         0.0000 
     34 C34         0.0883   -1.9621    3.5726 C.2       1 UNK         0.0000 
     35 C35         0.1400   -3.3517    3.7884 C.2       1 UNK         0.0000 
     36 N36         0.1385   -4.2177    2.7528 N.2       1 UNK         0.0000 
     37 C37         0.0892   -3.8027    1.4670 C.2       1 UNK         0.0000 
     38 C38         0.0419   -2.4248    1.1961 C.2       1 UNK         0.0000 
     39 O39         0.0000   -2.0800    0.0000 O.co2     1 UNK         0.0000 
     40 N40         0.0453   -1.4887    2.2741 N.2       1 UNK         0.0000 
     41 O41         0.0000   -0.1176    2.0767 O.co2     1 UNK         0.0000 
     42 C42         0.0892   -4.8437    0.3593 C.3       1 UNK         0.0000 
     43 C43         1.3769   -5.6721    0.4087 C.3       1 UNK         0.0000 
     44 C44        -1.1440   -5.7442    0.4786 C.3       1 UNK         0.0000 
     45 H45         1.1683    0.6764    4.1063 H         1 UNK         0.0000 
     46 H46         0.3133    0.9258    5.6547 H         1 UNK         0.0000 
     47 H47        -0.6492    0.8658    4.1502 H         1 UNK         0.0000 
     48 H48         0.9926   -1.3948    5.4329 H         1 UNK         0.0000 
     49 H49        -1.1238   -0.7891    6.6358 H         1 UNK         0.0000 
     50 H50        -2.0705   -1.0549    5.1202 H         1 UNK         0.0000 
     51 H51        -1.2572   -2.4314    5.9486 H         1 UNK         0.0000 
     52 H52         0.1911   -3.7563    4.7902 H         1 UNK         0.0000 
     53 H53         0.0477   -4.3618   -0.6418 H         1 UNK         0.0000 
     54 H54         1.3849   -6.4170   -0.4157 H         1 UNK         0.0000 
     55 H55         1.4660   -6.2112    1.3761 H         1 UNK         0.0000 
     56 H56         2.2593   -5.0081    0.2846 H         1 UNK         0.0000 
     57 H57        -1.1551   -6.4895   -0.3453 H         1 UNK         0.0000 
     58 H58        -2.0681   -5.1313    0.4046 H         1 UNK         0.0000 
     59 H59        -1.1483   -6.2856    1.4487 H         1 UNK         0.0000 
     60 C60         0.4906    0.1792   -4.6590 C.3       1 UNK         0.0000 
     61 C61        -1.0227   -0.0203   -4.8463 C.3       1 UNK         0.0000 
     62 C62        -1.2399   -1.3182   -5.6458 C.3       1 UNK         0.0000 
     63 C63        -1.9112   -0.0216   -3.5828 C.2       1 UNK         0.0000 
     64 C64        -3.2978   -0.0249   -3.8158 C.2       1 UNK         0.0000 
     65 N65        -4.1760   -0.0221   -2.7918 N.2       1 UNK         0.0000 
     66 C66        -3.7781   -0.0152   -1.4997 C.2       1 UNK         0.0000 
     67 C67        -2.4034   -0.0058   -1.2071 C.2       1 UNK         0.0000 
     68 O68        -2.0800    0.0000    0.0000 O.co2     1 UNK         0.0000 
     69 N69        -1.4503   -0.0059   -2.2784 N.2       1 UNK         0.0000 
     70 O70        -0.0768    0.0000   -2.0786 O.co2     1 UNK         0.0000 
     71 C71        -4.8370   -0.0161   -0.4088 C.3       1 UNK         0.0000 
     72 C72        -5.7068    1.2400   -0.5145 C.3       1 UNK         0.0000 
     73 C73        -5.6933   -1.2828   -0.5034 C.3       1 UNK         0.0000 
     74 H74         0.6954    1.1361   -4.1330 H         1 UNK         0.0000 
     75 H75         0.9877    0.2415   -5.6510 H         1 UNK         0.0000 
     76 H76         0.9527   -0.6737   -4.1172 H         1 UNK         0.0000 
     77 H77        -1.3566    0.8403   -5.4678 H         1 UNK         0.0000 
     78 H78        -0.6624   -1.2907   -6.5945 H         1 UNK         0.0000 
     79 H79        -0.9076   -2.1962   -5.0507 H         1 UNK         0.0000 
     80 H80        -2.3052   -1.4623   -5.9172 H         1 UNK         0.0000 
     81 H81        -3.6910   -0.0204   -4.8233 H         1 UNK         0.0000 
     82 H82        -4.3714   -0.0096    0.6005 H         1 UNK         0.0000 
     83 H83        -6.4661    1.2493    0.2965 H         1 UNK         0.0000 
     84 H84        -6.2309    1.2795   -1.4933 H         1 UNK         0.0000 
     85 H85        -5.0746    2.1478   -0.4086 H         1 UNK         0.0000 
     86 H86        -6.4526   -1.2929    0.3076 H         1 UNK         0.0000 
     87 H87        -5.0515   -2.1829   -0.3895 H         1 UNK         0.0000 
     88 H88        -6.2169   -1.3365   -1.4818 H         1 UNK         0.0000 
@<TRIPOS>BOND
     1    1   10 nc   
     2    1   12 nc   
     3    1   39 nc   
     4    1   41 nc   
     5    1   68 nc   
     6    1   70 nc   
     7    2   17 1    
     8    2   16 1    
     9    2    3 1    
    10    2   18 1    
    11    3   19 1    
    12    3    4 1    
    13    3    5 1    
    14    4   20 1    
    15    4   21 1    
    16    4   22 1    
    17    5   11 2    
    18    5    6 1    
    19    6    7 2    
    20    6   23 1    
    21    7    8 1    
    22    8    9 2    
    23    8   13 1    
    24    9   10 1    
    25    9   11 1    
    26   11   12 1    
    27   13   24 1    
    28   13   14 1    
    29   13   15 1    
    30   14   25 1    
    31   14   26 1    
    32   14   27 1    
    33   15   28 1    
    34   15   29 1    
    35   15   30 1    
    36   31   32 1    
    37   31   46 1    
    38   31   45 1    
    39   31   47 1    
    40   32   48 1    
    41   32   33 1    
    42   32   34 1    
    43   33   51 1    
    44   33   49 1    
    45   33   50 1    
    46   34   35 1    
    47   34   40 2    
    48   35   52 1    
    49   35   36 2    
    50   36   37 1    
    51   37   38 2    
    52   37   42 1    
    53   38   40 1    
    54   38   39 1    
    55   40   41 1    
    56   42   43 1    
    57   42   44 1    
    58   42   53 1    
    59   43   55 1    
    60   43   54 1    
    61   43   56 1    
    62   44   59 1    
    63   44   57 1    
    64   44   58 1    
    65   60   74 1    
    66   60   76 1    
    67   60   61 1    
    68   60   75 1    
    69   61   62 1    
    70   61   63 1    
    71   61   77 1    
    72   62   79 1    
    73   62   78 1    
    74   62   80 1    
    75   63   69 2    
    76   63   64 1    
    77   64   65 2    
    78   64   81 1    
    79   65   66 1    
    80   66   67 2    
    81   66   71 1    
    82   67   68 1    
    83   67   69 1    
    84   69   70 1    
    85   71   82 1    
    86   71   72 1    
    87   71   73 1    
    88   72   85 1    
    89   72   83 1    
    90   72   84 1    
    91   73   87 1    
    92   73   86 1    
    93   73   88 1    
@<TRIPOS>SUBSTRUCTURE
     1 UNK         1 GROUP             0       ****    0 ROOT    
