@<TRIPOS>MOLECULE
178_c1
78   85    1
SMALL
USER_CHARGES


@<TRIPOS>ATOM
      1 C1          3.8611    0.0821    1.7403 C.3       1 UNK         0.0000 
      2 C2          2.8069    0.0764    2.8729 C.3       1 UNK         0.0000 
      3 C3          3.4171   -0.3681    4.2165 C.3       1 UNK         0.0000 
      4 N4          3.9623   -1.7364    4.1355 N.3       1 UNK         0.0000 
      5 N5          4.7215   -1.9184    2.9453 N.am      1 UNK         0.0000 
      6 C6          5.1280   -0.7659    2.0700 C.3       1 UNK         0.0000 
      7 H7          5.8082   -0.1522    2.6757 H         1 UNK         0.0000 
      8 C8          4.9117   -3.1941    2.4935 C.2       1 UNK         0.0000 
      9 O9          6.0067   -3.7654    2.6905 O.co2     1 UNK         0.0000 
     10 C10         4.3588   -3.1418    1.0178 C.3       1 UNK         0.0000 
     11 H11         3.3865   -2.6426    1.1229 H         1 UNK         0.0000 
     12 N12         5.1796   -2.1851    0.1762 N.am      1 UNK         0.0000 
     13 C13         5.9483   -1.2698    0.8473 C.2       1 UNK         0.0000 
     14 O14         7.1314   -1.6157    1.0346 O.co2     1 UNK         0.0000 
     15 C15         4.9462   -1.9245   -1.2497 C.3       1 UNK         0.0000 
     16 C16         3.9341   -4.5571    0.4774 C.3       1 UNK         0.0000 
     17 C17         4.8104   -5.4144   -0.4890 C.3       1 UNK         0.0000 
     18 C18         5.9838   -6.2653    0.0691 C.3       1 UNK         0.0000 
     19 N19         7.1849   -5.5300    0.4869 N.am      1 UNK         0.0000 
     20 O20         7.2279   -4.2520    0.1173 O.co2     1 UNK         0.0000 
     21 C21         8.0434   -6.0350    1.4026 C.2       1 UNK         0.0000 
     22 O22         8.5582   -5.2295    2.1932 O.co2     1 UNK         0.0000 
     23 C23         8.5617   -7.4780    1.2765 C.3       1 UNK         0.0000 
     24 H24         7.9935   -8.0122    0.5130 H         1 UNK         0.0000 
     25 C25         8.4237   -8.2853    2.5954 C.3       1 UNK         0.0000 
     26 O26         7.0572   -8.3694    2.9643 O.3       1 UNK         0.0000 
     27 N27         9.9178   -7.3230    0.7330 N.am      1 UNK         0.0000 
     28 C28        11.0978   -7.8043    1.1500 C.2       1 UNK         0.0000 
     29 O29        11.2207   -8.5700    2.0921 O.2       1 UNK         0.0000 
     30 C30        12.3236   -7.3057    0.3851 C.3       1 UNK         0.0000 
     31 N31        12.5122   -5.8861    0.7003 N.am      1 UNK         0.0000 
     32 C32        13.6895   -5.4066    1.1399 C.2       1 UNK         0.0000 
     33 O33        14.6788   -6.1236    1.2474 O.2       1 UNK         0.0000 
     34 C34        13.8539   -3.9295    1.5341 C.3       1 UNK         0.0000 
     35 C35        13.2144   -2.7934    0.7139 C.3       1 UNK         0.0000 
     36 N36        11.7790   -2.8214    0.4755 N.am      1 UNK         0.0000 
     37 C37        10.7408   -2.6905    1.3280 C.2       1 UNK         0.0000 
     38 O38         9.6464   -3.0903    0.9090 O.co2     1 UNK         0.0000 
     39 C39        10.8213   -2.1076    2.7455 C.ar      1 UNK         0.0000 
     40 C40        12.0094   -1.5122    3.2283 C.ar      1 UNK         0.0000 
     41 C41        12.1296   -1.0312    4.5300 C.ar      1 UNK         0.0000 
     42 C42        11.0552   -1.1081    5.3988 C.ar      1 UNK         0.0000 
     43 C43         9.8436   -1.6251    4.9510 C.ar      1 UNK         0.0000 
     44 C44         9.7092   -2.1126    3.6460 C.ar      1 UNK         0.0000 
     45 O45         8.5331   -2.5253    3.3644 O.co2     1 UNK         0.0000 
     46 H46         4.1833    1.1114    1.5602 H         1 UNK         0.0000 
     47 H47         3.3616   -0.2514    0.8260 H         1 UNK         0.0000 
     48 H48         1.9748   -0.5851    2.6258 H         1 UNK         0.0000 
     49 H49         2.3635    1.0712    2.9678 H         1 UNK         0.0000 
     50 H50         2.6804   -0.2812    5.0211 H         1 UNK         0.0000 
     51 H51         4.2300    0.3186    4.4739 H         1 UNK         0.0000 
     52 H52         3.2057   -2.4179    4.1741 H         1 UNK         0.0000 
     53 H53         4.7660   -2.8346   -1.8269 H         1 UNK         0.0000 
     54 H54         5.8140   -1.4291   -1.7039 H         1 UNK         0.0000 
     55 H55         4.0698   -1.2840   -1.3809 H         1 UNK         0.0000 
     56 H56         3.0230   -4.3680   -0.1051 H         1 UNK         0.0000 
     57 H57         3.5815   -5.1817    1.3096 H         1 UNK         0.0000 
     58 H58         5.1739   -4.8106   -1.3133 H         1 UNK         0.0000 
     59 H59         4.1229   -6.1270   -0.9538 H         1 UNK         0.0000 
     60 H60         6.2815   -6.9615   -0.7164 H         1 UNK         0.0000 
     61 H61         5.6086   -6.8825    0.8938 H         1 UNK         0.0000 
     62 H62         8.9937   -7.8391    3.4162 H         1 UNK         0.0000 
     63 H63         8.8006   -9.3027    2.4699 H         1 UNK         0.0000 
     64 H64         6.6817   -9.1804    2.5867 H         1 UNK         0.0000 
     65 H65         9.9418   -6.7466   -0.0919 H         1 UNK         0.0000 
     66 H66        12.1725   -7.4283   -0.6875 H         1 UNK         0.0000 
     67 H67        13.1953   -7.9185    0.6323 H         1 UNK         0.0000 
     68 H68        11.7056   -5.2874    0.6585 H         1 UNK         0.0000 
     69 H69        13.4733   -3.8195    2.5465 H         1 UNK         0.0000 
     70 H70        14.8933   -3.6797    1.7560 H         1 UNK         0.0000 
     71 H71        13.5605   -3.0601   -0.2822 H         1 UNK         0.0000 
     72 H72        13.7336   -1.8327    0.7521 H         1 UNK         0.0000 
     73 H73        11.5193   -3.0093   -0.4811 H         1 UNK         0.0000 
     74 H74        12.9000   -1.3875    2.6415 H         1 UNK         0.0000 
     75 H75        13.0660   -0.6103    4.8774 H         1 UNK         0.0000 
     76 H76        11.1562   -0.7582    6.4185 H         1 UNK         0.0000 
     77 H77         9.0031   -1.6486    5.6397 H         1 UNK         0.0000 
     78 Fe78        7.8475   -3.4000    1.7769 Fe        1 UNK         0.0000 
@<TRIPOS>BOND
     1    1    2 1    
     2    1    6 1    
     3    1   46 1    
     4    1   47 1    
     5    2    3 1    
     6    2   48 1    
     7    2   49 1    
     8    3    4 1    
     9    3   50 1    
    10    3   51 1    
    11    4    5 1    
    12    4   52 1    
    13    5    6 1    
    14    5    8 am   BACKBONE|DICT|INTERRES
    15    6    7 1    
    16    6   13 1    
    17    8    9 2    
    18    8   10 1    
    19    9   78 nc   
    20   10   11 1    
    21   10   12 1    
    22   10   16 1    
    23   12   13 am   BACKBONE|DICT|INTERRES
    24   12   15 1    
    25   13   14 2    
    26   14   78 nc   
    27   15   53 1    
    28   15   54 1    
    29   15   55 1    
    30   16   17 1    
    31   16   56 1    
    32   16   57 1    
    33   17   18 1    
    34   17   58 1    
    35   17   59 1    
    36   18   19 1    
    37   18   60 1    
    38   18   61 1    
    39   19   20 1    
    40   19   21 am   BACKBONE|DICT|INTERRES
    41   20   78 nc   
    42   21   22 2    
    43   21   23 1    
    44   22   78 nc   
    45   23   25 1    
    46   23   27 1    
    47   23   24 1    
    48   25   26 1    
    49   25   62 1    
    50   25   63 1    
    51   26   64 1    
    52   27   28 am   BACKBONE|DICT|INTERRES
    53   27   65 1    
    54   28   29 2    
    55   28   30 1    
    56   30   31 1    
    57   30   66 1    
    58   30   67 1    
    59   31   32 am   BACKBONE|DICT|INTERRES
    60   31   68 1    
    61   32   33 2    
    62   32   34 1    
    63   34   35 1    
    64   34   69 1    
    65   34   70 1    
    66   35   36 1    
    67   35   71 1    
    68   35   72 1    
    69   36   37 am   BACKBONE|DICT|INTERRES
    70   36   73 1    
    71   37   38 2    
    72   37   39 1    
    73   38   78 nc   
    74   39   40 ar   
    75   39   44 ar   
    76   40   41 ar   
    77   40   74 1    
    78   41   42 ar   
    79   41   75 1    
    80   42   43 ar   
    81   42   76 1    
    82   43   44 ar   
    83   43   77 1    
    84   44   45 1    
    85   45   78 nc   
@<TRIPOS>SUBSTRUCTURE
     1 UNK         1 GROUP             0       ****    0 ROOT    
