@<TRIPOS>MOLECULE
185_B_c1
52   58    1
SMALL
USER_CHARGES


@<TRIPOS>ATOM
      1 C1          4.6494   -1.5034   -3.2444 C.ar      1 UNK         0.0000 
      2 C2          4.2504   -1.5238   -4.5806 C.ar      1 UNK         0.0000 
      3 C3          3.7982   -2.7326   -5.1135 C.ar      1 UNK         0.0000 
      4 C4          3.5105   -3.7898   -4.2499 C.ar      1 UNK         0.0000 
      5 O5          3.6249   -4.9535   -4.6991 O.co2     1 UNK         0.0000 
      6 C6          3.4522   -3.5844   -2.8663 C.ar      1 UNK         0.0000 
      7 O7          2.9123   -4.4157   -2.0169 O.co2     1 UNK         0.0000 
      8 C8          4.4350   -2.6600   -2.4707 C.ar      1 UNK         0.0000 
      9 C9          5.6011   -3.1919   -1.6768 C.2       1 UNK         0.0000 
     10 O10         6.5150   -2.4866   -1.2738 O.2       1 UNK         0.0000 
     11 N11         5.5103   -4.4967   -1.3196 N.am      1 UNK         0.0000 
     12 C12         5.1020   -4.6377    0.1126 C.3       1 UNK         0.0000 
     13 H13         4.2462   -5.2900    0.0713 H         1 UNK         0.0000 
     14 C14         4.4959   -3.4268    0.9344 C.3       1 UNK         0.0000 
     15 N15         3.1382   -2.9686    0.3628 N.4       1 UNK         0.0000 
     16 H16         3.2137   -2.8001   -0.6427 H         1 UNK         0.0000 
     17 H17         2.4342   -3.6897    0.4009 H         1 UNK         0.0000 
     18 H18         2.7870   -2.1364    0.8125 H         1 UNK         0.0000 
     19 C19         6.2033   -5.3624    0.9132 C.3       1 UNK         0.0000 
     20 C20         5.6104   -6.4006    1.8909 C.3       1 UNK         0.0000 
     21 C21         5.2151   -7.7599    1.2676 C.3       1 UNK         0.0000 
     22 C22         4.8840   -7.8098   -0.2439 C.3       1 UNK         0.0000 
     23 N23         3.5046   -7.3851   -0.6119 N.am      1 UNK         0.0000 
     24 C24         2.6679   -8.4387   -0.8560 C.2       1 UNK         0.0000 
     25 O25         1.7226   -8.7010   -0.1196 O.2       1 UNK         0.0000 
     26 C26         3.0741   -9.1979   -2.0992 C.ar      1 UNK         0.0000 
     27 C27         3.5031   -8.3647   -3.1393 C.ar      1 UNK         0.0000 
     28 O28         2.7084   -7.4122   -3.4519 O.co2     1 UNK         0.0000 
     29 C29         4.8936   -8.3831   -3.3738 C.ar      1 UNK         0.0000 
     30 O30         5.5740   -7.3031   -3.4923 O.co2     1 UNK         0.0000 
     31 C31         5.5693   -9.5930   -3.1900 C.ar      1 UNK         0.0000 
     32 C32         4.9186  -10.6687   -2.5640 C.ar      1 UNK         0.0000 
     33 C33         3.6841  -10.4476   -1.9437 C.ar      1 UNK         0.0000 
     34 H34         5.3147   -0.7175   -2.9120 H         1 UNK         0.0000 
     35 H35         4.5078   -0.7086   -5.2312 H         1 UNK         0.0000 
     36 H36         3.7809   -2.8677   -6.1896 H         1 UNK         0.0000 
     37 H37         6.4580   -4.8541   -1.4227 H         1 UNK         0.0000 
     38 H38         5.1386   -2.5460    0.9585 H         1 UNK         0.0000 
     39 H39         4.2719   -3.6997    1.9661 H         1 UNK         0.0000 
     40 H40         6.9255   -5.8636    0.2631 H         1 UNK         0.0000 
     41 H41         6.8094   -4.6272    1.4502 H         1 UNK         0.0000 
     42 H42         4.7535   -5.9807    2.4175 H         1 UNK         0.0000 
     43 H43         6.3445   -6.5934    2.6725 H         1 UNK         0.0000 
     44 H44         6.0444   -8.4523    1.4274 H         1 UNK         0.0000 
     45 H45         4.3924   -8.2017    1.8353 H         1 UNK         0.0000 
     46 H46         5.1273   -8.8277   -0.5626 H         1 UNK         0.0000 
     47 H47         5.6017   -7.2274   -0.8170 H         1 UNK         0.0000 
     48 H48         3.0467   -6.8716    0.1251 H         1 UNK         0.0000 
     49 H49         6.6138   -9.6738   -3.4556 H         1 UNK         0.0000 
     50 H50         5.4374  -11.5996   -2.4153 H         1 UNK         0.0000 
     51 H51         3.3122  -11.1474   -1.2059 H         1 UNK         0.0000 
     52 Fe52        3.9406   -6.0121   -2.8224 Fe        1 UNK         0.0000 
@<TRIPOS>BOND
     1    1    2 ar   
     2    1    8 ar   
     3    1   34 1    
     4    2    3 ar   
     5    2   35 1    
     6    3    4 ar   
     7    3   36 1    
     8    4    5 1    
     9    4    6 ar   
    10    5   52 nc   
    11    6    7 1    
    12    6    8 ar   
    13    7   52 nc   
    14    8    9 1    
    15    9   10 2    
    16    9   11 am   BACKBONE|DICT|INTERRES
    17   11   37 1    
    18   11   12 1    
    19   11   52 nc   
    20   12   14 1    
    21   12   19 1    
    22   12   13 1    
    23   14   15 1    
    24   14   38 1    
    25   14   39 1    
    26   15   16 1    
    27   15   17 1    
    28   15   18 1    
    29   19   20 1    
    30   19   40 1    
    31   19   41 1    
    32   20   21 1    
    33   20   42 1    
    34   20   43 1    
    35   21   22 1    
    36   21   44 1    
    37   21   45 1    
    38   22   23 1    
    39   22   46 1    
    40   22   47 1    
    41   23   24 am   BACKBONE|DICT|INTERRES
    42   23   48 1    
    43   23   52 nc   
    44   24   25 2    
    45   24   26 1    
    46   26   27 ar   
    47   26   33 ar   
    48   27   28 1    
    49   27   29 ar   
    50   28   52 nc   
    51   29   30 1    
    52   29   31 ar   
    53   30   52 nc   
    54   31   32 ar   
    55   31   49 1    
    56   32   33 ar   
    57   32   50 1    
    58   33   51 1    
@<TRIPOS>SUBSTRUCTURE
     1 UNK         1 GROUP             0       ****    0 ROOT    
