@<TRIPOS>MOLECULE
185_J3_c1
49   55    1
SMALL
USER_CHARGES


@<TRIPOS>ATOM
      1 C1          4.5976   -2.4010   -0.7638 C.ar      1 UNK         0.0000 
      2 C2          5.2382   -2.8792   -1.9146 C.ar      1 UNK         0.0000 
      3 C3          5.8638   -4.1331   -1.8629 C.ar      1 UNK         0.0000 
      4 C4          6.0575   -4.7238   -0.6106 C.ar      1 UNK         0.0000 
      5 O5          6.0390   -5.9815   -0.4635 O.co2     1 UNK         0.0000 
      6 C6          5.8839   -3.9528    0.5379 C.ar      1 UNK         0.0000 
      7 O7          6.2703   -4.3584    1.6908 O.co2     1 UNK         0.0000 
      8 C8          4.7703   -3.1215    0.4254 C.ar      1 UNK         0.0000 
      9 C9          3.5662   -3.5343    1.2272 C.2       1 UNK         0.0000 
     10 O10         2.7194   -2.7268    1.6111 O.2       1 UNK         0.0000 
     11 N11         3.4965   -4.9133    1.4311 N.am      1 UNK         0.0000 
     12 C12         2.6829   -5.4350    2.5676 C.3       1 UNK         0.0000 
     13 H13         1.8854   -4.7169    2.7982 H         1 UNK         0.0000 
     14 C14         3.6202   -5.5208    3.8136 C.3       1 UNK         0.0000 
     15 O15         4.7748   -6.2756    3.5657 O.co2     1 UNK         0.0000 
     16 C16         1.9739   -6.8261    2.3353 C.3       1 UNK         0.0000 
     17 C17         1.4374   -7.1931    0.9299 C.3       1 UNK         0.0000 
     18 C18         1.2536   -8.7281    0.7594 C.3       1 UNK         0.0000 
     19 C19         2.4305   -9.5237    0.1262 C.3       1 UNK         0.0000 
     20 N20         3.6118   -9.7944    0.9603 N.am      1 UNK         0.0000 
     21 C21         4.5792   -8.9140    1.2873 C.2       1 UNK         0.0000 
     22 O22         4.4399   -7.7109    1.0370 O.co2     1 UNK         0.0000 
     23 C23         5.8431   -9.4158    1.9774 C.ar      1 UNK         0.0000 
     24 C24         6.9537   -8.5668    2.2515 C.ar      1 UNK         0.0000 
     25 O25         7.0201   -7.3242    1.9567 O.co2     1 UNK         0.0000 
     26 C26         8.0877   -9.0789    2.8878 C.ar      1 UNK         0.0000 
     27 C27         8.1491  -10.4164    3.2786 C.ar      1 UNK         0.0000 
     28 C28         7.0760  -11.2594    3.0192 C.ar      1 UNK         0.0000 
     29 C29         5.9414  -10.7710    2.3701 C.ar      1 UNK         0.0000 
     30 H30         3.8549   -1.6183   -0.8474 H         1 UNK         0.0000 
     31 H31         5.0809   -2.3973   -2.8639 H         1 UNK         0.0000 
     32 H32         6.1008   -4.6705   -2.7723 H         1 UNK         0.0000 
     33 H33         3.3165   -5.3418    0.5249 H         1 UNK         0.0000 
     34 H34         3.8760   -4.5008    4.1040 H         1 UNK         0.0000 
     35 H35         3.0525   -5.8981    4.6716 H         1 UNK         0.0000 
     36 H36         1.1299   -6.8784    3.0323 H         1 UNK         0.0000 
     37 H37         2.5849   -7.6716    2.6664 H         1 UNK         0.0000 
     38 H38         2.0672   -6.8226    0.1212 H         1 UNK         0.0000 
     39 H39         0.4737   -6.6934    0.7966 H         1 UNK         0.0000 
     40 H40         0.3981   -8.8751    0.0948 H         1 UNK         0.0000 
     41 H41         0.9500   -9.1906    1.7017 H         1 UNK         0.0000 
     42 H42         2.7545   -9.0134   -0.7822 H         1 UNK         0.0000 
     43 H43         2.0480  -10.4833   -0.2187 H         1 UNK         0.0000 
     44 H44         3.7700  -10.7549    1.2167 H         1 UNK         0.0000 
     45 H45         8.9258   -8.4226    3.0893 H         1 UNK         0.0000 
     46 H46         9.0219  -10.7866    3.7942 H         1 UNK         0.0000 
     47 H47         7.1171  -12.2881    3.3395 H         1 UNK         0.0000 
     48 H48         5.1350  -11.4739    2.2061 H         1 UNK         0.0000 
     49 Fe49        5.4720   -6.0819    1.5740 Fe        1 UNK         0.0000 
@<TRIPOS>BOND
     1    1    2 ar   
     2    1    8 ar   
     3    1   30 1    
     4    2    3 ar   
     5    2   31 1    
     6    3    4 ar   
     7    3   32 1    
     8    4    5 1    
     9    4    6 ar   
    10    5   49 nc   
    11    6    7 1    
    12    6    8 ar   
    13    7   49 nc   
    14    8    9 1    
    15    9   10 2    
    16    9   11 am   BACKBONE|DICT|INTERRES
    17   11   33 1    
    18   11   12 1    
    19   11   49 nc   
    20   12   14 1    
    21   12   16 1    
    22   12   13 1    
    23   14   15 1    
    24   14   34 1    
    25   14   35 1    
    26   15   49 nc   
    27   16   17 1    
    28   16   36 1    
    29   16   37 1    
    30   17   18 1    
    31   17   38 1    
    32   17   39 1    
    33   18   19 1    
    34   18   40 1    
    35   18   41 1    
    36   19   20 1    
    37   19   42 1    
    38   19   43 1    
    39   20   21 am   BACKBONE|DICT|INTERRES
    40   20   44 1    
    41   21   22 2    
    42   21   23 1    
    43   22   49 nc   
    44   23   24 ar   
    45   23   29 ar   
    46   24   25 1    
    47   24   26 ar   
    48   25   49 nc   
    49   26   27 ar   
    50   26   45 1    
    51   27   28 ar   
    52   27   46 1    
    53   28   29 ar   
    54   28   47 1    
    55   29   48 1    
@<TRIPOS>SUBSTRUCTURE
     1 UNK         1 GROUP             0       ****    0 ROOT    
