@<TRIPOS>MOLECULE
097_c1
88   93    1
SMALL
USER_CHARGES


@<TRIPOS>ATOM
      1 Fe1        -0.4759   -0.0429    0.0017 Fe        1 UNK         0.0000 
      2 O2         -1.3728    1.1874   -1.7077 O.co2     1 UNK         0.0000 
      3 N3         -0.3468    1.6390   -2.4409 N.am      1 UNK         0.0000 
      4 C4         -0.6469    2.8888   -3.1664 C.3       1 UNK         0.0000 
      5 C5         -0.1361    4.1298   -2.3909 C.3       1 UNK         0.0000 
      6 C6         -1.1032    5.3267   -2.3923 C.3       1 UNK         0.0000 
      7 C7         -0.5206    6.6062   -1.7507 C.3       1 UNK         0.0000 
      8 C8         -0.2089    6.5531   -0.2368 C.3       1 UNK         0.0000 
      9 N9         -1.4018    6.4580    0.6197 N.am      1 UNK         0.0000 
     10 C10        -1.6918    5.5396    1.5517 C.2       1 UNK         0.0000 
     11 O11        -2.6665    5.7051    2.2715 O.2       1 UNK         0.0000 
     12 C12        -0.8044    4.2993    1.6923 C.3       1 UNK         0.0000 
     13 C13        -1.2439    3.2121    2.7265 C.3       1 UNK         0.0000 
     14 C14        -0.8530    1.8361    2.1767 C.2       1 UNK         0.0000 
     15 O15        -1.4786    1.3814    1.2141 O.co2     1 UNK         0.0000 
     16 N16         0.2987    1.2193    2.5410 N.am      1 UNK         0.0000 
     17 O17         0.9758    0.4086    1.7217 O.co2     1 UNK         0.0000 
     18 C18         0.5944    0.9157    3.9567 C.3       1 UNK         0.0000 
     19 C19         0.1792   -0.5343    4.3592 C.3       1 UNK         0.0000 
     20 C20         1.2538   -1.3130    5.1439 C.3       1 UNK         0.0000 
     21 C21         0.8682   -2.7657    5.5177 C.3       1 UNK         0.0000 
     22 C22         0.2903   -3.6764    4.4062 C.3       1 UNK         0.0000 
     23 N23         1.0597   -3.7188    3.1528 N.am      1 UNK         0.0000 
     24 C24         0.7968   -4.5966    2.1684 C.2       1 UNK         0.0000 
     25 O25        -0.0619   -5.4684    2.2742 O.2       1 UNK         0.0000 
     26 C26         1.5664   -4.4759    0.8428 C.3       1 UNK         0.0000 
     27 C27         0.6467   -4.2414   -0.4012 C.3       1 UNK         0.0000 
     28 C28        -0.0142   -2.8616   -0.3422 C.2       1 UNK         0.0000 
     29 O29         0.6396   -1.9102    0.0808 O.co2     1 UNK         0.0000 
     30 N30        -1.3173   -2.6451   -0.6497 N.am      1 UNK         0.0000 
     31 O31        -2.0230   -1.6410   -0.1175 O.co2     1 UNK         0.0000 
     32 C32        -1.9030   -3.1628   -1.9047 C.3       1 UNK         0.0000 
     33 C33        -2.2667   -2.0385   -2.9241 C.3       1 UNK         0.0000 
     34 C34        -2.6195   -2.5240   -4.3405 C.3       1 UNK         0.0000 
     35 C35        -1.4090   -2.9057   -5.2232 C.3       1 UNK         0.0000 
     36 C36        -0.5771   -1.7180   -5.7628 C.3       1 UNK         0.0000 
     37 N37         0.5070   -1.2651   -4.8839 N.am      1 UNK         0.0000 
     38 C38         1.2877   -0.2125   -5.1852 C.2       1 UNK         0.0000 
     39 O39         1.1440    0.4445   -6.2083 O.2       1 UNK         0.0000 
     40 C40         2.3795    0.1914   -4.1865 C.3       1 UNK         0.0000 
     41 C41         2.0211    1.4657   -3.3734 C.3       1 UNK         0.0000 
     42 C42         0.9218    1.1561   -2.3424 C.2       1 UNK         0.0000 
     43 O43         1.1909    0.3806   -1.4231 O.co2     1 UNK         0.0000 
     44 H44        -1.7306    2.9688   -3.2837 H         1 UNK         0.0000 
     45 H45        -0.2822    2.8808   -4.1987 H         1 UNK         0.0000 
     46 H46         0.8333    4.4142   -2.7980 H         1 UNK         0.0000 
     47 H47         0.0585    3.8545   -1.3601 H         1 UNK         0.0000 
     48 H48        -2.0325    5.0515   -1.8872 H         1 UNK         0.0000 
     49 H49        -1.3773    5.5509   -3.4233 H         1 UNK         0.0000 
     50 H50         0.4027    6.8580   -2.2771 H         1 UNK         0.0000 
     51 H51        -1.1963    7.4431   -1.9447 H         1 UNK         0.0000 
     52 H52         0.4750    5.7231   -0.0568 H         1 UNK         0.0000 
     53 H53         0.3541    7.4433    0.0502 H         1 UNK         0.0000 
     54 H54        -2.0445    7.2360    0.6054 H         1 UNK         0.0000 
     55 H55        -0.7747    3.8839    0.6868 H         1 UNK         0.0000 
     56 H56         0.2081    4.6230    1.9312 H         1 UNK         0.0000 
     57 H57        -2.3288    3.2009    2.8540 H         1 UNK         0.0000 
     58 H58        -0.8149    3.4075    3.7091 H         1 UNK         0.0000 
     59 H59         0.1287    1.6186    4.6502 H         1 UNK         0.0000 
     60 H60         1.6707    1.0578    4.0926 H         1 UNK         0.0000 
     61 H61        -0.0500   -1.1177    3.4707 H         1 UNK         0.0000 
     62 H62        -0.7581   -0.5037    4.9125 H         1 UNK         0.0000 
     63 H63         1.4863   -0.7707    6.0616 H         1 UNK         0.0000 
     64 H64         2.1809   -1.3331    4.5689 H         1 UNK         0.0000 
     65 H65         1.7376   -3.2592    5.9607 H         1 UNK         0.0000 
     66 H66         0.1308   -2.7309    6.3227 H         1 UNK         0.0000 
     67 H67         0.1745   -4.6890    4.8033 H         1 UNK         0.0000 
     68 H68        -0.7110   -3.3236    4.1476 H         1 UNK         0.0000 
     69 H69         1.7586   -3.0042    3.0137 H         1 UNK         0.0000 
     70 H70         2.0866   -5.4201    0.7091 H         1 UNK         0.0000 
     71 H71         2.3703   -3.7448    0.8875 H         1 UNK         0.0000 
     72 H72         1.2611   -4.2557   -1.3029 H         1 UNK         0.0000 
     73 H73        -0.0654   -5.0579   -0.5437 H         1 UNK         0.0000 
     74 H74        -1.2522   -3.8880   -2.4015 H         1 UNK         0.0000 
     75 H75        -2.8037   -3.7359   -1.6664 H         1 UNK         0.0000 
     76 H76        -3.1325   -1.4981   -2.5380 H         1 UNK         0.0000 
     77 H77        -1.4721   -1.2984   -2.9895 H         1 UNK         0.0000 
     78 H78        -3.1904   -1.7462   -4.8533 H         1 UNK         0.0000 
     79 H79        -3.3041   -3.3699   -4.2686 H         1 UNK         0.0000 
     80 H80        -0.7688   -3.6300   -4.7195 H         1 UNK         0.0000 
     81 H81        -1.8062   -3.4365   -6.0919 H         1 UNK         0.0000 
     82 H82        -1.2444   -0.8781   -5.9785 H         1 UNK         0.0000 
     83 H83        -0.1518   -1.9918   -6.7312 H         1 UNK         0.0000 
     84 H84         0.6513   -1.7638   -4.0243 H         1 UNK         0.0000 
     85 H85         3.2665    0.4031   -4.7825 H         1 UNK         0.0000 
     86 H86         2.6977   -0.6236   -3.5398 H         1 UNK         0.0000 
     87 H87         1.8475    2.3240   -4.0208 H         1 UNK         0.0000 
     88 H88         2.9041    1.7652   -2.8029 H         1 UNK         0.0000 
@<TRIPOS>BOND
     1    1    2 nc   
     2    1   15 nc   
     3    1   17 nc   
     4    1   29 nc   
     5    1   31 nc   
     6    1   43 nc   
     7    2    3 1    
     8    3   42 am   BACKBONE|DICT|INTERRES
     9    3    4 1    
    10    4   44 1    
    11    4    5 1    
    12    4   45 1    
    13    5   47 1    
    14    5    6 1    
    15    5   46 1    
    16    6   48 1    
    17    6    7 1    
    18    6   49 1    
    19    7    8 1    
    20    7   50 1    
    21    7   51 1    
    22    8   52 1    
    23    8   53 1    
    24    8    9 1    
    25    9   10 am   BACKBONE|DICT|INTERRES
    26    9   54 1    
    27   10   12 1    
    28   10   11 2    
    29   12   56 1    
    30   12   13 1    
    31   12   55 1    
    32   13   58 1    
    33   13   14 1    
    34   13   57 1    
    35   14   15 2    
    36   14   16 am   BACKBONE|DICT|INTERRES
    37   16   18 1    
    38   16   17 1    
    39   18   60 1    
    40   18   19 1    
    41   18   59 1    
    42   19   62 1    
    43   19   20 1    
    44   19   61 1    
    45   20   21 1    
    46   20   63 1    
    47   20   64 1    
    48   21   65 1    
    49   21   66 1    
    50   21   22 1    
    51   22   67 1    
    52   22   23 1    
    53   22   68 1    
    54   23   24 am   BACKBONE|DICT|INTERRES
    55   23   69 1    
    56   24   25 2    
    57   24   26 1    
    58   26   71 1    
    59   26   27 1    
    60   26   70 1    
    61   27   28 1    
    62   27   72 1    
    63   27   73 1    
    64   28   29 2    
    65   28   30 am   BACKBONE|DICT|INTERRES
    66   30   31 1    
    67   30   32 1    
    68   32   75 1    
    69   32   33 1    
    70   32   74 1    
    71   33   76 1    
    72   33   34 1    
    73   33   77 1    
    74   34   79 1    
    75   34   35 1    
    76   34   78 1    
    77   35   80 1    
    78   35   36 1    
    79   35   81 1    
    80   36   37 1    
    81   36   82 1    
    82   36   83 1    
    83   37   84 1    
    84   37   38 am   BACKBONE|DICT|INTERRES
    85   38   40 1    
    86   38   39 2    
    87   40   86 1    
    88   40   41 1    
    89   40   85 1    
    90   41   88 1    
    91   41   42 1    
    92   41   87 1    
    93   42   43 2    
@<TRIPOS>SUBSTRUCTURE
     1 UNK         1 GROUP             0       ****    0 ROOT    
