@<TRIPOS>MOLECULE
088_c1
136   144    1
SMALL
USER_CHARGES


@<TRIPOS>ATOM
      1 Fe1        -3.2857   -1.0704   -0.7509 Fe        1 UNK         0.0000 
      2 O2         -4.1361   -2.6979    0.2075 O.co2     1 UNK         0.0000 
      3 C3         -3.5892   -3.7866    0.4669 C.ar      1 UNK         0.0000 
      4 C4         -4.4232   -4.8524    0.7890 C.ar      1 UNK         0.0000 
      5 C5         -3.8984   -6.1153    1.0631 C.ar      1 UNK         0.0000 
      6 C6         -2.5217   -6.3034    0.9806 C.ar      1 UNK         0.0000 
      7 C7         -1.6620   -5.2261    0.6487 C.ar      1 UNK         0.0000 
      8 C8         -2.1885   -3.9271    0.3912 C.ar      1 UNK         0.0000 
      9 O9         -1.5136   -2.8609    0.0302 O.co2     1 UNK         0.0000 
     10 C10        -0.1900   -5.5555    0.5843 C.2       1 UNK         0.0000 
     11 O11         0.2348   -6.4694   -0.1335 O.2       1 UNK         0.0000 
     12 N12         0.5967   -4.9823    1.5228 N.am      1 UNK         0.0000 
     13 C13         1.9627   -5.4481    1.7709 C.3       1 UNK         0.0000 
     14 H14         2.3585   -5.7961    0.8142 H         1 UNK         0.0000 
     15 C15         2.0010   -6.6992    2.7659 C.3       1 UNK         0.0000 
     16 C16         1.3223   -8.0841    2.5777 C.3       1 UNK         0.0000 
     17 C17         2.2448   -9.2356    3.1091 C.3       1 UNK         0.0000 
     18 C18         1.5871  -10.3884    3.8906 C.3       1 UNK         0.0000 
     19 N19         2.5838  -11.4407    4.2166 N.4       1 UNK         0.0000 
     20 H20         2.1794  -12.1608    4.8004 H         1 UNK         0.0000 
     21 H21         3.3707  -11.0370    4.7072 H         1 UNK         0.0000 
     22 H22         2.9253  -11.8694    3.3671 H         1 UNK         0.0000 
     23 C23         3.0368   -4.4003    2.2738 C.2       1 UNK         0.0000 
     24 O24         3.8363   -4.7914    3.1215 O.2       1 UNK         0.0000 
     25 N25         3.3107   -3.1210    1.9178 N.am      1 UNK         0.0000 
     26 C26         2.8764   -1.9490    1.1315 C.3       1 UNK         0.0000 
     27 H27         3.8633   -1.4857    1.1358 H         1 UNK         0.0000 
     28 C28         2.2214   -0.8710    2.0092 C.2       1 UNK         0.0000 
     29 O29         2.0224   -1.0364    3.2201 O.2       1 UNK         0.0000 
     30 O30         2.2757    0.3648    1.4444 O.3       1 UNK         0.0000 
     31 C31         2.4053    1.5193    2.2769 C.3       1 UNK         0.0000 
     32 C32         2.0466    2.8987    1.6614 C.3       1 UNK         0.0000 
     33 H33         2.6755    3.6011    2.2144 H         1 UNK         0.0000 
     34 N34         0.6427    3.3019    1.8741 N.am      1 UNK         0.0000 
     35 C35         0.2177    3.9663    2.9706 C.2       1 UNK         0.0000 
     36 O36         0.9669    4.1594    3.9374 O.2       1 UNK         0.0000 
     37 C37        -1.2195    4.5831    2.9758 C.3       1 UNK         0.0000 
     38 H38        -1.8395    3.9800    3.6489 H         1 UNK         0.0000 
     39 C39        -1.2433    6.1092    3.3945 C.3       1 UNK         0.0000 
     40 C40        -0.6431    6.6068    4.7396 C.3       1 UNK         0.0000 
     41 C41        -0.7678    8.1427    4.8958 C.3       1 UNK         0.0000 
     42 C42        -0.1548    8.7176    6.1909 C.3       1 UNK         0.0000 
     43 N43        -0.3450   10.1846    6.2917 N.4       1 UNK         0.0000 
     44 H44         0.1155   10.6573    5.5261 H         1 UNK         0.0000 
     45 H45        -1.3287   10.4152    6.2730 H         1 UNK         0.0000 
     46 H46         0.0460   10.5286    7.1590 H         1 UNK         0.0000 
     47 N47        -1.7530    4.5873    1.6216 N.am      1 UNK         0.0000 
     48 C48        -2.9168    4.1821    1.0871 C.2       1 UNK         0.0000 
     49 O49        -3.3409    4.9204    0.1851 O.2       1 UNK         0.0000 
     50 C50        -3.7575    3.0024    1.5721 C.ar      1 UNK         0.0000 
     51 C51        -4.8698    3.2855    2.3979 C.ar      1 UNK         0.0000 
     52 C52        -5.9485    2.4110    2.4670 C.ar      1 UNK         0.0000 
     53 C53        -5.9648    1.2636    1.6717 C.ar      1 UNK         0.0000 
     54 C54        -4.8470    0.9406    0.8882 C.ar      1 UNK         0.0000 
     55 O55        -4.9354   -0.0407    0.1014 O.co2     1 UNK         0.0000 
     56 C56        -3.6749    1.7295    0.9297 C.ar      1 UNK         0.0000 
     57 O57        -2.6244    1.2631    0.3074 O.co2     1 UNK         0.0000 
     58 C58         2.4217    3.1554    0.2006 C.2       1 UNK         0.0000 
     59 O59         2.9918    4.1972   -0.1432 O.2       1 UNK         0.0000 
     60 O60         2.1046    2.1562   -0.6493 O.3       1 UNK         0.0000 
     61 C61         2.4532    2.2342   -2.0350 C.3       1 UNK         0.0000 
     62 C62         2.3774    0.8660   -2.7705 C.3       1 UNK         0.0000 
     63 H63         1.3301    0.6152   -2.9372 H         1 UNK         0.0000 
     64 C64         3.0912   -0.2351   -1.9652 C.2       1 UNK         0.0000 
     65 O65         4.2950   -0.5113   -2.1190 O.2       1 UNK         0.0000 
     66 O66         2.2900   -0.8691   -1.0832 O.3       1 UNK         0.0000 
     67 C67         2.7133   -2.0646   -0.4117 C.3       1 UNK         0.0000 
     68 N68         3.1226    0.9206   -4.0511 N.am      1 UNK         0.0000 
     69 C69         2.7842    1.0300   -5.3580 C.2       1 UNK         0.0000 
     70 O70         3.7131    1.0090   -6.1740 O.2       1 UNK         0.0000 
     71 C71         1.3374    1.2118   -5.9106 C.3       1 UNK         0.0000 
     72 H72         1.1390    2.2722   -5.7518 H         1 UNK         0.0000 
     73 C73         1.2048    0.9618   -7.4604 C.3       1 UNK         0.0000 
     74 C74         1.7281    2.1126   -8.3596 C.3       1 UNK         0.0000 
     75 C75         2.1641    1.6568   -9.7652 C.3       1 UNK         0.0000 
     76 C76         2.6294    2.8327  -10.6463 C.3       1 UNK         0.0000 
     77 N77         3.1506    2.3816  -11.9543 N.4       1 UNK         0.0000 
     78 H78         3.4389    3.1814  -12.5014 H         1 UNK         0.0000 
     79 H79         2.4386    1.8805  -12.4666 H         1 UNK         0.0000 
     80 H80         3.9511    1.7788  -11.8222 H         1 UNK         0.0000 
     81 N81         0.2793    0.4364   -5.2465 N.am      1 UNK         0.0000 
     82 C82        -0.9266    0.9648   -4.9840 C.2       1 UNK         0.0000 
     83 O83        -1.1604    2.1649   -5.1959 O.2       1 UNK         0.0000 
     84 C84        -2.0667   -0.0205   -4.8301 C.ar      1 UNK         0.0000 
     85 C85        -2.7440   -0.3617   -6.0212 C.ar      1 UNK         0.0000 
     86 C86        -3.9180   -1.1030   -5.9911 C.ar      1 UNK         0.0000 
     87 C87        -4.4368   -1.5057   -4.7556 C.ar      1 UNK         0.0000 
     88 C88        -3.7406   -1.2363   -3.5649 C.ar      1 UNK         0.0000 
     89 O89        -4.2436   -1.6134   -2.4763 O.co2     1 UNK         0.0000 
     90 C90        -2.5142   -0.5314   -3.5797 C.ar      1 UNK         0.0000 
     91 O91        -1.8973   -0.3802   -2.4499 O.co2     1 UNK         0.0000 
     92 H92        -5.4866   -4.6658    0.8258 H         1 UNK         0.0000 
     93 H93        -4.5804   -6.9114    1.3355 H         1 UNK         0.0000 
     94 H94        -2.1138   -7.2840    1.1703 H         1 UNK         0.0000 
     95 H95         0.2464   -4.1330    1.9191 H         1 UNK         0.0000 
     96 H96         1.7880   -6.3583    3.7824 H         1 UNK         0.0000 
     97 H97         3.0537   -6.9833    2.7520 H         1 UNK         0.0000 
     98 H98         1.0924   -8.2559    1.5259 H         1 UNK         0.0000 
     99 H99         0.3644   -8.0849    3.1040 H         1 UNK         0.0000 
    100 H100        3.0251   -8.8403    3.7638 H         1 UNK         0.0000 
    101 H101        2.7764   -9.6438    2.2483 H         1 UNK         0.0000 
    102 H102        0.7567  -10.8287    3.3375 H         1 UNK         0.0000 
    103 H103        1.1751   -9.9917    4.8205 H         1 UNK         0.0000 
    104 H104        4.0606   -2.8341    2.5240 H         1 UNK         0.0000 
    105 H105        1.8629    1.4075    3.2170 H         1 UNK         0.0000 
    106 H106        3.4567    1.5521    2.5731 H         1 UNK         0.0000 
    107 H107       -0.0560    2.9919    1.1939 H         1 UNK         0.0000 
    108 H108       -2.2884    6.4221    3.3713 H         1 UNK         0.0000 
    109 H109       -0.7469    6.6879    2.6083 H         1 UNK         0.0000 
    110 H110       -1.1161    6.0907    5.5747 H         1 UNK         0.0000 
    111 H111        0.4133    6.3525    4.7752 H         1 UNK         0.0000 
    112 H112       -1.8206    8.4225    4.8365 H         1 UNK         0.0000 
    113 H113       -0.2845    8.6050    4.0332 H         1 UNK         0.0000 
    114 H114       -0.6133    8.2454    7.0620 H         1 UNK         0.0000 
    115 H115        0.9137    8.4935    6.2339 H         1 UNK         0.0000 
    116 H116       -1.2625    5.2256    1.0287 H         1 UNK         0.0000 
    117 H117       -4.9587    4.2506    2.8676 H         1 UNK         0.0000 
    118 H118       -6.8337    2.6633    3.0363 H         1 UNK         0.0000 
    119 H119       -6.8562    0.6467    1.6287 H         1 UNK         0.0000 
    120 H120        3.4719    2.6267   -2.1249 H         1 UNK         0.0000 
    121 H121        1.8187    2.9520   -2.5565 H         1 UNK         0.0000 
    122 H122        3.7006   -2.3812   -0.7744 H         1 UNK         0.0000 
    123 H123        2.0470   -2.8763   -0.6930 H         1 UNK         0.0000 
    124 H124        4.1109    0.8087   -3.8838 H         1 UNK         0.0000 
    125 H125        0.1684    0.7777   -7.7441 H         1 UNK         0.0000 
    126 H126        1.7140    0.0274   -7.7009 H         1 UNK         0.0000 
    127 H127        0.9477    2.8719   -8.4391 H         1 UNK         0.0000 
    128 H128        2.5644    2.6021   -7.8653 H         1 UNK         0.0000 
    129 H129        2.9751    0.9352   -9.6463 H         1 UNK         0.0000 
    130 H130        1.3405    1.1258  -10.2475 H         1 UNK         0.0000 
    131 H131        3.4147    3.3970  -10.1375 H         1 UNK         0.0000 
    132 H132        1.7980    3.5220  -10.8100 H         1 UNK         0.0000 
    133 H133        0.4437   -0.5086   -4.9664 H         1 UNK         0.0000 
    134 H134       -2.3627    0.0028   -6.9653 H         1 UNK         0.0000 
    135 H135       -4.4480   -1.3614   -6.9039 H         1 UNK         0.0000 
    136 H136       -5.3709   -2.0419   -4.6941 H         1 UNK         0.0000 
@<TRIPOS>BOND
     1    1    2 nc   
     2    1    9 nc   
     3    1   55 nc   
     4    1   57 nc   
     5    1   89 nc   
     6    1   91 nc   
     7    2    3 1    
     8    3    4 ar   
     9    3    8 ar   
    10    4    5 ar   
    11    4   92 1    
    12    5    6 ar   
    13    5   93 1    
    14    6   94 1    
    15    6    7 ar   
    16    7   10 1    
    17    7    8 ar   
    18    8    9 1    
    19   10   12 am   BACKBONE|DICT|INTERRES
    20   10   11 2    
    21   12   13 1    
    22   12   95 1    
    23   13   14 1    
    24   13   23 1    
    25   13   15 1    
    26   15   16 1    
    27   15   96 1    
    28   15   97 1    
    29   16   17 1    
    30   16   99 1    
    31   16   98 1    
    32   17  100 1    
    33   17   18 1    
    34   17  101 1    
    35   18   19 1    
    36   18  103 1    
    37   18  102 1    
    38   19   21 1    
    39   19   20 1    
    40   19   22 1    
    41   23   24 2    
    42   23   25 am   BACKBONE|DICT|INTERRES
    43   25  104 1    
    44   25   26 1    
    45   26   27 1    
    46   26   28 1    
    47   26   67 1    
    48   28   29 2    
    49   28   30 1    
    50   30   31 1    
    51   31  105 1    
    52   31   32 1    
    53   31  106 1    
    54   32   34 1    
    55   32   33 1    
    56   32   58 1    
    57   34   35 am   BACKBONE|DICT|INTERRES
    58   34  107 1    
    59   35   37 1    
    60   35   36 2    
    61   37   39 1    
    62   37   38 1    
    63   37   47 1    
    64   39  108 1    
    65   39   40 1    
    66   39  109 1    
    67   40  111 1    
    68   40   41 1    
    69   40  110 1    
    70   41   42 1    
    71   41  112 1    
    72   41  113 1    
    73   42  115 1    
    74   42   43 1    
    75   42  114 1    
    76   43   45 1    
    77   43   46 1    
    78   43   44 1    
    79   47  116 1    
    80   47   48 am   BACKBONE|DICT|INTERRES
    81   48   49 2    
    82   48   50 1    
    83   50   51 ar   
    84   50   56 ar   
    85   51  117 1    
    86   51   52 ar   
    87   52  118 1    
    88   52   53 ar   
    89   53   54 ar   
    90   53  119 1    
    91   54   56 ar   
    92   54   55 1    
    93   56   57 1    
    94   58   59 2    
    95   58   60 1    
    96   60   61 1    
    97   61   62 1    
    98   61  120 1    
    99   61  121 1    
   100   62   63 1    
   101   62   64 1    
   102   62   68 1    
   103   64   66 1    
   104   64   65 2    
   105   66   67 1    
   106   67  122 1    
   107   67  123 1    
   108   68   69 am   BACKBONE|DICT|INTERRES
   109   68  124 1    
   110   69   70 2    
   111   69   71 1    
   112   71   72 1    
   113   71   81 1    
   114   71   73 1    
   115   73   74 1    
   116   73  125 1    
   117   73  126 1    
   118   74  128 1    
   119   74   75 1    
   120   74  127 1    
   121   75  129 1    
   122   75   76 1    
   123   75  130 1    
   124   76  131 1    
   125   76   77 1    
   126   76  132 1    
   127   77   80 1    
   128   77   78 1    
   129   77   79 1    
   130   81  133 1    
   131   81   82 am   BACKBONE|DICT|INTERRES
   132   82   84 1    
   133   82   83 2    
   134   84   90 ar   
   135   84   85 ar   
   136   85   86 ar   
   137   85  134 1    
   138   86   87 ar   
   139   86  135 1    
   140   87   88 ar   
   141   87  136 1    
   142   88   90 ar   
   143   88   89 1    
   144   90   91 1    
@<TRIPOS>SUBSTRUCTURE
     1 UNK         1 GROUP             0       ****    0 ROOT    
