@<TRIPOS>MOLECULE
005_c1
43   48    1
SMALL
USER_CHARGES


@<TRIPOS>ATOM
      1 Fe1         0.0000    0.0000    0.0000 Fe        1 UNK         0.0000 
      2 O2          0.0000    2.0800    0.0000 O.co2     1 UNK         0.0000 
      3 C3          1.0649    2.9103    0.0322 C.2       1 UNK         0.0000 
      4 O4          0.8344    4.1100    0.0486 O.co2     1 UNK         0.0000 
      5 C5          2.5012    2.4325    0.0495 C.ar      1 UNK         0.0000 
      6 C6          2.9370    1.0638    0.0334 C.ar      1 UNK         0.0000 
      7 O7          2.0799    0.0146    0.0000 O.co2     1 UNK         0.0000 
      8 C8          4.3140    0.7730    0.0525 C.ar      1 UNK         0.0000 
      9 C9          5.2639    1.7883    0.0867 C.ar      1 UNK         0.0000 
     10 C10         4.8582    3.1158    0.1028 C.ar      1 UNK         0.0000 
     11 C11         3.5008    3.4347    0.0845 C.ar      1 UNK         0.0000 
     12 H12         4.6536   -0.2555    0.0405 H         1 UNK         0.0000 
     13 H13         6.3183    1.5432    0.1009 H         1 UNK         0.0000 
     14 H14         5.5989    3.9048    0.1295 H         1 UNK         0.0000 
     15 H15         3.2377    4.4848    0.0981 H         1 UNK         0.0000 
     16 O16         0.0000   -2.0800    0.0000 O.co2     1 UNK         0.0000 
     17 C17         0.0392   -2.9030    1.0710 C.2       1 UNK         0.0000 
     18 O18         0.0589   -4.1041    0.8475 O.co2     1 UNK         0.0000 
     19 C19         0.0600   -2.4178    2.5062 C.ar      1 UNK         0.0000 
     20 C20         0.0405   -1.0475    2.9386 C.ar      1 UNK         0.0000 
     21 O21         0.0000    0.0000    2.0800 O.co2     1 UNK         0.0000 
     22 C22         0.0636   -0.7528    4.3148 C.ar      1 UNK         0.0000 
     23 C23         0.1052   -1.7648    5.2677 C.ar      1 UNK         0.0000 
     24 C24         0.1246   -3.0935    4.8657 C.ar      1 UNK         0.0000 
     25 C25         0.1024   -3.4163    3.5093 C.ar      1 UNK         0.0000 
     26 H26         0.0490    0.2766    4.6519 H         1 UNK         0.0000 
     27 H27         0.1224   -1.5168    6.3213 H         1 UNK         0.0000 
     28 H28         0.1570   -3.8801    5.6086 H         1 UNK         0.0000 
     29 H29         0.1188   -4.4675    3.2501 H         1 UNK         0.0000 
     30 O30        -2.0800    0.0000    0.0000 O.co2     1 UNK         0.0000 
     31 C31        -2.9026    0.0391   -1.0713 C.2       1 UNK         0.0000 
     32 O32        -4.1037    0.0589   -0.8482 O.co2     1 UNK         0.0000 
     33 C33        -2.4172    0.0598   -2.5067 C.ar      1 UNK         0.0000 
     34 C34        -1.0470    0.0403   -2.9391 C.ar      1 UNK         0.0000 
     35 O35         0.0000    0.0000   -2.0800 O.co2     1 UNK         0.0000 
     36 C36        -0.7520    0.0633   -4.3152 C.ar      1 UNK         0.0000 
     37 C37        -1.7635    0.1050   -5.2683 C.ar      1 UNK         0.0000 
     38 C38        -3.0921    0.1247   -4.8665 C.ar      1 UNK         0.0000 
     39 C39        -3.4155    0.1025   -3.5101 C.ar      1 UNK         0.0000 
     40 H40         0.2779    0.0485   -4.6518 H         1 UNK         0.0000 
     41 H41        -1.5151    0.1222   -6.3216 H         1 UNK         0.0000 
     42 H42        -3.8785    0.1575   -5.6097 H         1 UNK         0.0000 
     43 H43        -4.4667    0.1193   -3.2511 H         1 UNK         0.0000 
@<TRIPOS>BOND
     1    1    2 nc   
     2    1    7 nc   
     3    1   16 nc   
     4    1   21 nc   
     5    1   30 nc   
     6    1   35 nc   
     7    2    3 1    
     8    3    4 2    
     9    3    5 1    
    10    5   11 ar   
    11    5    6 ar   
    12    6    8 ar   
    13    6    7 1    
    14    8    9 ar   
    15    8   12 1    
    16    9   13 1    
    17    9   10 ar   
    18   10   14 1    
    19   10   11 ar   
    20   11   15 1    
    21   16   17 1    
    22   17   19 1    
    23   17   18 2    
    24   19   20 ar   
    25   19   25 ar   
    26   20   22 ar   
    27   20   21 1    
    28   22   26 1    
    29   22   23 ar   
    30   23   27 1    
    31   23   24 ar   
    32   24   28 1    
    33   24   25 ar   
    34   25   29 1    
    35   30   31 1    
    36   31   32 2    
    37   31   33 1    
    38   33   34 ar   
    39   33   39 ar   
    40   34   35 1    
    41   34   36 ar   
    42   36   37 ar   
    43   36   40 1    
    44   37   38 ar   
    45   37   41 1    
    46   38   39 ar   
    47   38   42 1    
    48   39   43 1    
@<TRIPOS>SUBSTRUCTURE
     1 UNK         1 GROUP             0       ****    0 ROOT    
