@<TRIPOS>MOLECULE
184_J_c1
129   136    1
SMALL
USER_CHARGES


@<TRIPOS>ATOM
      1 O1         -5.3129    5.9223    8.6029 O.co2     1 UNK         0.0000 
      2 N2         -5.0243    6.3812    7.3724 N.am      1 UNK         0.0000 
      3 C3         -6.1361    7.0961    6.7321 C.3       1 UNK         0.0000 
      4 C4         -5.7970    8.4619    6.1291 C.3       1 UNK         0.0000 
      5 C5         -5.0337    8.3813    4.8039 C.3       1 UNK         0.0000 
      6 C6         -3.5796    7.9049    4.9483 C.3       1 UNK         0.0000 
      7 C7         -3.3269    6.4539    5.4206 C.3       1 UNK         0.0000 
      8 H8         -2.2743    6.4809    5.7034 H         1 UNK         0.0000 
      9 C9         -3.8992    5.8917    6.7494 C.2       1 UNK         0.0000 
     10 O10        -3.3739    4.8732    7.1944 O.co2     1 UNK         0.0000 
     11 N11        -3.3319    5.3683    4.3975 N.am      1 UNK         0.0000 
     12 C12        -4.4176    4.7750    3.8810 C.2       1 UNK         0.0000 
     13 O13        -5.5226    5.2762    4.0174 O.2       1 UNK         0.0000 
     14 C14        -4.2802    3.4147    3.1411 C.3       1 UNK         0.0000 
     15 H15        -4.4629    3.6720    2.0972 H         1 UNK         0.0000 
     16 C16        -2.8459    2.8004    3.1724 C.3       1 UNK         0.0000 
     17 C17        -5.4028    2.4020    3.5876 C.3       1 UNK         0.0000 
     18 H18        -5.4652    2.4125    4.6745 H         1 UNK         0.0000 
     19 C19        -6.7838    2.7649    2.9440 C.3       1 UNK         0.0000 
     20 C20        -7.9233    1.7460    3.1175 C.3       1 UNK         0.0000 
     21 O21        -5.0696    1.1062    3.0787 O.3       1 UNK         0.0000 
     22 C22        -4.9732   -0.1239    3.7155 C.2       1 UNK         0.0000 
     23 O23        -4.7865   -1.1195    3.0130 O.2       1 UNK         0.0000 
     24 C24        -5.1194   -0.2905    5.2496 C.3       1 UNK         0.0000 
     25 H25        -5.1205   -1.3792    5.3694 H         1 UNK         0.0000 
     26 N26        -3.9652    0.2778    5.9813 N.am      1 UNK         0.0000 
     27 C27        -3.2397   -0.4602    6.8374 C.2       1 UNK         0.0000 
     28 O28        -3.2137   -1.6941    6.7728 O.2       1 UNK         0.0000 
     29 C29        -2.5839    0.2841    8.0404 C.3       1 UNK         0.0000 
     30 H30        -2.1389   -0.5047    8.6510 H         1 UNK         0.0000 
     31 N31        -1.5701    1.2745    7.6836 N.2       1 UNK         0.0000 
     32 C32        -1.9863    2.3499    8.2244 C.2       1 UNK         0.0000 
     33 O33        -3.3407    2.3200    8.4711 O.co2     1 UNK         0.0000 
     34 C34        -3.6250    1.0215    8.9002 C.3       1 UNK         0.0000 
     35 H35        -4.6564    0.8151    8.6639 H         1 UNK         0.0000 
     36 C36        -3.4203    1.0470   10.4285 C.3       1 UNK         0.0000 
     37 C37        -1.2604    3.5883    8.6098 C.ar      1 UNK         0.0000 
     38 C38        -1.8042    4.5502    9.5209 C.ar      1 UNK         0.0000 
     39 O39        -2.9864    4.5258   10.0030 O.co2     1 UNK         0.0000 
     40 C40        -1.0076    5.6241    9.9097 C.ar      1 UNK         0.0000 
     41 C41         0.3139    5.7376    9.4669 C.ar      1 UNK         0.0000 
     42 C42         0.8469    4.8048    8.5968 C.ar      1 UNK         0.0000 
     43 C43         0.0583    3.7415    8.1522 C.ar      1 UNK         0.0000 
     44 C44        -6.4789    0.0839    5.9036 C.3       1 UNK         0.0000 
     45 C45        -6.7413   -0.5160    7.3316 C.3       1 UNK         0.0000 
     46 C46        -7.7818    0.2135    8.2356 C.3       1 UNK         0.0000 
     47 C47        -7.3138    1.3093    9.2638 C.3       1 UNK         0.0000 
     48 N48        -6.7411    2.6172    8.8392 N.am      1 UNK         0.0000 
     49 O49        -5.9164    3.1551    9.7697 O.co2     1 UNK         0.0000 
     50 C50        -6.7232    3.0730    7.5609 C.2       1 UNK         0.0000 
     51 O51        -5.6472    3.5205    7.1764 O.co2     1 UNK         0.0000 
     52 C52        -7.8599    3.0693    6.6510 C.2       1 UNK         0.0000 
     53 C53        -9.1844    3.0384    6.8969 C.2       1 UNK         0.0000 
     54 C54        -9.9214    3.0515    8.2131 C.3       1 UNK         0.0000 
     55 C55       -11.4148    3.3275    7.9881 C.3       1 UNK         0.0000 
     56 C56       -12.2515    3.3017    9.2720 C.3       1 UNK         0.0000 
     57 C57       -12.3538    1.9018    9.9039 C.3       1 UNK         0.0000 
     58 C58       -13.3267    1.8967   11.0853 C.3       1 UNK         0.0000 
     59 C59       -13.5204    0.4877   11.6530 C.3       1 UNK         0.0000 
     60 C60       -14.5625    0.4708   12.7736 C.3       1 UNK         0.0000 
     61 C61       -14.8039   -0.9497   13.2879 C.3       1 UNK         0.0000 
     62 C62       -15.8883   -0.9799   14.3675 C.3       1 UNK         0.0000 
     63 C63       -16.1613   -2.4089   14.8485 C.3       1 UNK         0.0000 
     64 C64       -17.2701   -2.4507   15.9061 C.3       1 UNK         0.0000 
     65 C65       -17.5583   -3.8836   16.3746 C.3       1 UNK         0.0000 
     66 C66       -18.6755   -3.9248   17.4242 C.3       1 UNK         0.0000 
     67 H67        -6.9415    7.2845    7.4507 H         1 UNK         0.0000 
     68 H68        -6.6140    6.4353    6.0042 H         1 UNK         0.0000 
     69 H69        -5.2412    9.0300    6.8754 H         1 UNK         0.0000 
     70 H70        -6.7296    9.0014    5.9625 H         1 UNK         0.0000 
     71 H71        -5.0223    9.3699    4.3555 H         1 UNK         0.0000 
     72 H72        -5.5723    7.7410    4.1059 H         1 UNK         0.0000 
     73 H73        -3.0602    8.5694    5.6429 H         1 UNK         0.0000 
     74 H74        -3.0712    8.0381    3.9960 H         1 UNK         0.0000 
     75 H75        -2.4650    4.8606    4.3022 H         1 UNK         0.0000 
     76 H76        -2.0888    3.4796    2.7770 H         1 UNK         0.0000 
     77 H77        -2.7897    1.9031    2.5527 H         1 UNK         0.0000 
     78 H78        -2.5581    2.5102    4.1848 H         1 UNK         0.0000 
     79 H79        -6.6379    2.9263    1.8737 H         1 UNK         0.0000 
     80 H80        -7.1545    3.7175    3.3150 H         1 UNK         0.0000 
     81 H81        -7.6656    0.7843    2.6771 H         1 UNK         0.0000 
     82 H82        -8.8307    2.0967    2.6263 H         1 UNK         0.0000 
     83 H83        -8.1662    1.5906    4.1654 H         1 UNK         0.0000 
     84 H84        -3.9213    1.2612    6.2024 H         1 UNK         0.0000 
     85 H85        -3.5781    0.0655   10.8577 H         1 UNK         0.0000 
     86 H86        -2.4110    1.3732   10.6771 H         1 UNK         0.0000 
     87 H87        -4.0894    1.7553   10.9104 H         1 UNK         0.0000 
     88 H88        -1.4123    6.3541   10.5897 H         1 UNK         0.0000 
     89 H89         0.9247    6.5362    9.8598 H         1 UNK         0.0000 
     90 H90         1.8777    4.8526    8.2919 H         1 UNK         0.0000 
     91 H91         0.4798    2.9912    7.4813 H         1 UNK         0.0000 
     92 H92        -7.3030   -0.2203    5.2577 H         1 UNK         0.0000 
     93 H93        -6.5022    1.1527    5.9272 H         1 UNK         0.0000 
     94 H94        -7.1197   -1.5263    7.1824 H         1 UNK         0.0000 
     95 H95        -5.8218   -0.7080    7.8819 H         1 UNK         0.0000 
     96 H96        -8.2268   -0.5603    8.8609 H         1 UNK         0.0000 
     97 H97        -8.6122    0.5671    7.6332 H         1 UNK         0.0000 
     98 H98        -8.1434    1.5477    9.9320 H         1 UNK         0.0000 
     99 H99        -6.5921    0.8116    9.9178 H         1 UNK         0.0000 
    100 H100       -7.5382    3.1226    5.6218 H         1 UNK         0.0000 
    101 H101       -9.8296    3.0253    6.0279 H         1 UNK         0.0000 
    102 H102       -9.4654    3.7795    8.8902 H         1 UNK         0.0000 
    103 H103       -9.8298    2.0706    8.6642 H         1 UNK         0.0000 
    104 H104      -11.8242    2.5922    7.2873 H         1 UNK         0.0000 
    105 H105      -11.5354    4.2968    7.5040 H         1 UNK         0.0000 
    106 H106      -13.2573    3.6625    9.0335 H         1 UNK         0.0000 
    107 H107      -11.8376    4.0088    9.9959 H         1 UNK         0.0000 
    108 H108      -11.3742    1.5539   10.2432 H         1 UNK         0.0000 
    109 H109      -12.6892    1.1802    9.1529 H         1 UNK         0.0000 
    110 H110      -14.2919    2.2943   10.7585 H         1 UNK         0.0000 
    111 H111      -12.9711    2.5721   11.8695 H         1 UNK         0.0000 
    112 H112      -12.5676    0.0990   12.0246 H         1 UNK         0.0000 
    113 H113      -13.8317   -0.1889   10.8515 H         1 UNK         0.0000 
    114 H114      -15.5023    0.8941   12.4070 H         1 UNK         0.0000 
    115 H115      -14.2367    1.1168   13.5942 H         1 UNK         0.0000 
    116 H116      -13.8727   -1.3668   13.6824 H         1 UNK         0.0000 
    117 H117      -15.0977   -1.5965   12.4559 H         1 UNK         0.0000 
    118 H118      -15.5899   -0.3523   15.2126 H         1 UNK         0.0000 
    119 H119      -16.8108   -0.5416   13.9746 H         1 UNK         0.0000 
    120 H120      -15.2425   -2.8434   15.2547 H         1 UNK         0.0000 
    121 H121      -16.4419   -3.0352   13.9956 H         1 UNK         0.0000 
    122 H122      -18.1809   -2.0032   15.4968 H         1 UNK         0.0000 
    123 H123      -16.9848   -1.8280   16.7595 H         1 UNK         0.0000 
    124 H124      -17.8336   -4.5015   15.5161 H         1 UNK         0.0000 
    125 H125      -16.6467   -4.3262   16.7840 H         1 UNK         0.0000 
    126 H126      -19.6057   -3.5162   17.0242 H         1 UNK         0.0000 
    127 H127      -18.4080   -3.3399   18.3065 H         1 UNK         0.0000 
    128 H128      -18.8698   -4.9469   17.7458 H         1 UNK         0.0000 
    129 Fe129      -4.4171    4.0745    8.6469 Fe        1 UNK         0.0000 
@<TRIPOS>BOND
     1    1    2 1    
     2    1  129 nc   
     3    2    3 1    
     4    2    9 am   BACKBONE|DICT|INTERRES
     5    3    4 1    
     6    3   67 1    
     7    3   68 1    
     8    4    5 1    
     9    4   69 1    
    10    4   70 1    
    11    5    6 1    
    12    5   71 1    
    13    5   72 1    
    14    6    7 1    
    15    6   73 1    
    16    6   74 1    
    17    7    8 1    
    18    7    9 1    
    19    7   11 1    
    20    9   10 2    
    21   10  129 nc   
    22   11   12 am   BACKBONE|DICT|INTERRES
    23   11   75 1    
    24   12   13 2    
    25   12   14 1    
    26   14   15 1    
    27   14   16 1    
    28   14   17 1    
    29   16   76 1    
    30   16   77 1    
    31   16   78 1    
    32   17   18 1    
    33   17   19 1    
    34   17   21 1    
    35   19   20 1    
    36   19   79 1    
    37   19   80 1    
    38   20   81 1    
    39   20   82 1    
    40   20   83 1    
    41   21   22 1    
    42   22   23 2    
    43   22   24 1    
    44   24   25 1    
    45   24   26 1    
    46   24   44 1    
    47   26   27 am   BACKBONE|DICT|INTERRES
    48   26   84 1    
    49   27   28 2    
    50   27   29 1    
    51   29   30 1    
    52   29   31 1    
    53   29   34 1    
    54   31   32 2    
    55   32   33 1    
    56   32   37 1    
    57   33   34 1    
    58   33  129 nc   
    59   34   36 1    
    60   34   35 1    
    61   36   85 1    
    62   36   86 1    
    63   36   87 1    
    64   37   38 ar   
    65   37   43 ar   
    66   38   39 1    
    67   38   40 ar   
    68   39  129 nc   
    69   40   41 ar   
    70   40   88 1    
    71   41   42 ar   
    72   41   89 1    
    73   42   43 ar   
    74   42   90 1    
    75   43   91 1    
    76   44   45 1    
    77   44   92 1    
    78   44   93 1    
    79   45   46 1    
    80   45   94 1    
    81   45   95 1    
    82   46   47 1    
    83   46   96 1    
    84   46   97 1    
    85   47   48 1    
    86   47   98 1    
    87   47   99 1    
    88   48   49 1    
    89   48   50 am   BACKBONE|DICT|INTERRES
    90   49  129 nc   
    91   50   51 2    
    92   50   52 1    
    93   51  129 nc   
    94   52   53 2    
    95   52  100 1    
    96   53   54 1    
    97   53  101 1    
    98   54   55 1    
    99   54  102 1    
   100   54  103 1    
   101   55   56 1    
   102   55  104 1    
   103   55  105 1    
   104   56   57 1    
   105   56  106 1    
   106   56  107 1    
   107   57   58 1    
   108   57  108 1    
   109   57  109 1    
   110   58   59 1    
   111   58  110 1    
   112   58  111 1    
   113   59   60 1    
   114   59  112 1    
   115   59  113 1    
   116   60   61 1    
   117   60  114 1    
   118   60  115 1    
   119   61   62 1    
   120   61  116 1    
   121   61  117 1    
   122   62   63 1    
   123   62  118 1    
   124   62  119 1    
   125   63   64 1    
   126   63  120 1    
   127   63  121 1    
   128   64   65 1    
   129   64  122 1    
   130   64  123 1    
   131   65   66 1    
   132   65  124 1    
   133   65  125 1    
   134   66  126 1    
   135   66  127 1    
   136   66  128 1    
@<TRIPOS>SUBSTRUCTURE
     1 UNK         1 GROUP             0       ****    0 ROOT    
