@<TRIPOS>MOLECULE
103_c2
118   123    1
SMALL
USER_CHARGES


@<TRIPOS>ATOM
      1 Fe1         0.2015   -2.1851   -1.0699 Fe        1 UNK         0.0000 
      2 O2          3.7021   -6.5824   -3.2372 O.2       1 UNK         0.0000 
      3 C3          2.4835   -6.6747   -3.3176 C.2       1 UNK         0.0000 
      4 C4          1.6677   -7.1826   -2.1109 C.3       1 UNK         0.0000 
      5 C5          1.7742   -6.3594   -0.7937 C.3       1 UNK         0.0000 
      6 C6          0.8899   -5.0949   -0.7759 C.2       1 UNK         0.0000 
      7 O7          1.4312   -3.9828   -0.7228 O.co2     1 UNK         0.0000 
      8 N8         -0.4642   -5.1731   -0.8944 N.am      1 UNK         0.0000 
      9 O9         -1.2331   -4.1174   -1.2056 O.co2     1 UNK         0.0000 
     10 C10        -1.2348   -6.3004   -0.2980 C.3       1 UNK         0.0000 
     11 C11        -1.7983   -5.9214    1.0988 C.3       1 UNK         0.0000 
     12 C12        -2.8290   -6.9083    1.6782 C.3       1 UNK         0.0000 
     13 C13        -3.3028   -6.5672    3.1133 C.3       1 UNK         0.0000 
     14 C14        -3.8461   -5.1322    3.3259 C.3       1 UNK         0.0000 
     15 N15        -2.7931   -4.1591    3.6485 N.am      1 UNK         0.0000 
     16 C16        -2.6634   -2.9309    3.1238 C.2       1 UNK         0.0000 
     17 O17        -3.4382   -2.4754    2.2893 O.2       1 UNK         0.0000 
     18 C18        -1.4990   -2.0895    3.6715 C.3       1 UNK         0.0000 
     19 C19        -1.1282   -0.7775    2.9223 C.3       1 UNK         0.0000 
     20 C20        -0.3666   -1.0155    1.6032 C.2       1 UNK         0.0000 
     21 O21        -0.8977   -1.6923    0.7137 O.co2     1 UNK         0.0000 
     22 N22         0.8805   -0.5120    1.3707 N.am      1 UNK         0.0000 
     23 O23         1.5690   -0.7594    0.2610 O.co2     1 UNK         0.0000 
     24 C24         1.5583    0.4797    2.2144 C.3       1 UNK         0.0000 
     25 C25         0.9256    1.8738    2.0730 C.3       1 UNK         0.0000 
     26 C26         1.8103    2.9669    2.6761 C.3       1 UNK         0.0000 
     27 C27         0.9713    4.1386    3.1921 C.3       1 UNK         0.0000 
     28 C28         1.8199    5.2748    3.7922 C.3       1 UNK         0.0000 
     29 N29         2.0137    6.4023    2.8826 N.am      1 UNK         0.0000 
     30 C30         1.0628    7.3015    2.5985 C.2       1 UNK         0.0000 
     31 O31        -0.0843    7.2314    3.0335 O.2       1 UNK         0.0000 
     32 C32         1.4836    8.5224    1.7808 C.3       1 UNK         0.0000 
     33 C33         0.5586    8.8547    0.5798 C.3       1 UNK         0.0000 
     34 C34         0.8228    8.0667   -0.7215 C.2       1 UNK         0.0000 
     35 O35         1.7531    7.2590   -0.7560 O.2       1 UNK         0.0000 
     36 N36         0.0762    8.3576   -1.8227 N.am      1 UNK         0.0000 
     37 O37        -1.0907    9.1286   -1.6346 O.3       1 UNK         0.0000 
     38 C38         0.2101    7.7709   -3.1612 C.3       1 UNK         0.0000 
     39 C39        -0.8058    6.6486   -3.4701 C.3       1 UNK         0.0000 
     40 C40        -0.6438    5.3548   -2.6437 C.3       1 UNK         0.0000 
     41 C41         0.7363    4.6665   -2.7514 C.3       1 UNK         0.0000 
     42 C42         1.1880    4.2785   -4.1754 C.3       1 UNK         0.0000 
     43 N43         0.3178    3.2881   -4.8165 N.am      1 UNK         0.0000 
     44 C44         0.3312    1.9805   -4.5206 C.2       1 UNK         0.0000 
     45 O45         1.0911    1.5253   -3.6781 O.2       1 UNK         0.0000 
     46 C46        -0.6322    1.0631   -5.3011 C.3       1 UNK         0.0000 
     47 C47        -1.4929    0.0668   -4.4625 C.3       1 UNK         0.0000 
     48 C48        -0.7669   -0.8284   -3.4290 C.2       1 UNK         0.0000 
     49 O49        -1.2106   -0.9019   -2.2686 O.co2     1 UNK         0.0000 
     50 N50         0.4010   -1.4922   -3.6899 N.am      1 UNK         0.0000 
     51 O51         1.1416   -1.9933   -2.7111 O.co2     1 UNK         0.0000 
     52 C52         0.9566   -1.8244   -5.0281 C.3       1 UNK         0.0000 
     53 C53         1.6442   -3.2352   -5.0687 C.3       1 UNK         0.0000 
     54 C54         2.3935   -3.6656   -6.3314 C.3       1 UNK         0.0000 
     55 C55         3.2250   -4.9498   -6.0666 C.3       1 UNK         0.0000 
     56 C56         2.4304   -6.2569   -5.7983 C.3       1 UNK         0.0000 
     57 N57         1.8252   -6.4514   -4.4667 N.am      1 UNK         0.0000 
     58 H58         2.1292   -8.1496   -1.9111 H         1 UNK         0.0000 
     59 H59         0.6363   -7.4295   -2.3622 H         1 UNK         0.0000 
     60 H60         1.4611   -6.9794    0.0472 H         1 UNK         0.0000 
     61 H61         2.8190   -6.1300   -0.5713 H         1 UNK         0.0000 
     62 H62        -0.6947   -7.2504   -0.2156 H         1 UNK         0.0000 
     63 H63        -2.0629   -6.5369   -0.9736 H         1 UNK         0.0000 
     64 H64        -2.2769   -4.9480    1.0349 H         1 UNK         0.0000 
     65 H65        -0.9712   -5.8143    1.7970 H         1 UNK         0.0000 
     66 H66        -3.6976   -6.9476    1.0191 H         1 UNK         0.0000 
     67 H67        -2.4057   -7.9116    1.6813 H         1 UNK         0.0000 
     68 H68        -2.5003   -6.7666    3.8267 H         1 UNK         0.0000 
     69 H69        -4.0950   -7.2745    3.3787 H         1 UNK         0.0000 
     70 H70        -4.4216   -4.8359    2.4428 H         1 UNK         0.0000 
     71 H71        -4.5758   -5.1327    4.1391 H         1 UNK         0.0000 
     72 H72        -2.1661   -4.4156    4.3933 H         1 UNK         0.0000 
     73 H73        -1.8588   -1.7786    4.6482 H         1 UNK         0.0000 
     74 H74        -0.6099   -2.6807    3.8744 H         1 UNK         0.0000 
     75 H75        -0.5054   -0.1930    3.5998 H         1 UNK         0.0000 
     76 H76        -1.9979   -0.1381    2.7634 H         1 UNK         0.0000 
     77 H77         1.6164    0.1668    3.2594 H         1 UNK         0.0000 
     78 H78         2.6171    0.5740    1.9313 H         1 UNK         0.0000 
     79 H79         0.7412    2.1016    1.0243 H         1 UNK         0.0000 
     80 H80        -0.0494    1.8622    2.5581 H         1 UNK         0.0000 
     81 H81         2.3988    2.5629    3.5009 H         1 UNK         0.0000 
     82 H82         2.5253    3.3033    1.9222 H         1 UNK         0.0000 
     83 H83         0.3318    4.5163    2.3909 H         1 UNK         0.0000 
     84 H84         0.2870    3.7673    3.9571 H         1 UNK         0.0000 
     85 H85         1.3324    5.6353    4.7017 H         1 UNK         0.0000 
     86 H86         2.7849    4.8975    4.1349 H         1 UNK         0.0000 
     87 H87         2.9215    6.5295    2.4664 H         1 UNK         0.0000 
     88 H88         2.5410    8.5311    1.5127 H         1 UNK         0.0000 
     89 H89         1.3762    9.3360    2.4980 H         1 UNK         0.0000 
     90 H90        -0.4926    8.8289    0.8715 H         1 UNK         0.0000 
     91 H91         0.7655    9.8910    0.3107 H         1 UNK         0.0000 
     92 H92        -0.8965    9.9573   -2.0809 H         1 UNK         0.0000 
     93 H93         0.0878    8.5664   -3.8974 H         1 UNK         0.0000 
     94 H94         1.2292    7.4046   -3.3023 H         1 UNK         0.0000 
     95 H95        -0.7338    6.3968   -4.5284 H         1 UNK         0.0000 
     96 H96        -1.8174    7.0383   -3.3422 H         1 UNK         0.0000 
     97 H97        -1.4190    4.6462   -2.9402 H         1 UNK         0.0000 
     98 H98        -0.8420    5.5754   -1.5930 H         1 UNK         0.0000 
     99 H99         1.5015    5.3042   -2.3123 H         1 UNK         0.0000 
    100 H100        0.7357    3.7732   -2.1239 H         1 UNK         0.0000 
    101 H101        1.1878    5.1643   -4.8134 H         1 UNK         0.0000 
    102 H102        2.2246    3.9315   -4.1573 H         1 UNK         0.0000 
    103 H103       -0.3388    3.6184   -5.4980 H         1 UNK         0.0000 
    104 H104       -0.0867    0.5414   -6.0851 H         1 UNK         0.0000 
    105 H105       -1.3222    1.6943   -5.8595 H         1 UNK         0.0000 
    106 H106       -2.2443    0.6621   -3.9304 H         1 UNK         0.0000 
    107 H107       -2.0927   -0.5610   -5.1257 H         1 UNK         0.0000 
    108 H108        1.7097   -1.0651   -5.2662 H         1 UNK         0.0000 
    109 H109        0.2043   -1.7449   -5.8226 H         1 UNK         0.0000 
    110 H110        2.4126   -3.2660   -4.2945 H         1 UNK         0.0000 
    111 H111        0.9005   -3.9821   -4.8031 H         1 UNK         0.0000 
    112 H112        3.0800   -2.8683   -6.6216 H         1 UNK         0.0000 
    113 H113        1.7104   -3.8091   -7.1691 H         1 UNK         0.0000 
    114 H114        3.9315   -4.7852   -5.2505 H         1 UNK         0.0000 
    115 H115        3.8579   -5.1237   -6.9379 H         1 UNK         0.0000 
    116 H116        3.0558   -7.1216   -6.0360 H         1 UNK         0.0000 
    117 H117        1.6130   -6.3020   -6.5218 H         1 UNK         0.0000 
    118 H118        0.8207   -6.4387   -4.4247 H         1 UNK         0.0000 
@<TRIPOS>BOND
     1    1    7 nc   
     2    1    9 nc   
     3    1   21 nc   
     4    1   23 nc   
     5    1   49 nc   
     6    1   51 nc   
     7    2    3 2    
     8    3    4 1    
     9    3   57 am   BACKBONE|DICT|INTERRES
    10    4   58 1    
    11    4    5 1    
    12    4   59 1    
    13    5   61 1    
    14    5   60 1    
    15    5    6 1    
    16    6    7 2    
    17    6    8 am   BACKBONE|DICT|INTERRES
    18    8   10 1    
    19    8    9 1    
    20   10   62 1    
    21   10   11 1    
    22   10   63 1    
    23   11   12 1    
    24   11   65 1    
    25   11   64 1    
    26   12   67 1    
    27   12   13 1    
    28   12   66 1    
    29   13   14 1    
    30   13   69 1    
    31   13   68 1    
    32   14   15 1    
    33   14   71 1    
    34   14   70 1    
    35   15   72 1    
    36   15   16 am   BACKBONE|DICT|INTERRES
    37   16   18 1    
    38   16   17 2    
    39   18   74 1    
    40   18   73 1    
    41   18   19 1    
    42   19   75 1    
    43   19   20 1    
    44   19   76 1    
    45   20   21 2    
    46   20   22 am   BACKBONE|DICT|INTERRES
    47   22   24 1    
    48   22   23 1    
    49   24   25 1    
    50   24   77 1    
    51   24   78 1    
    52   25   26 1    
    53   25   80 1    
    54   25   79 1    
    55   26   27 1    
    56   26   81 1    
    57   26   82 1    
    58   27   28 1    
    59   27   84 1    
    60   27   83 1    
    61   28   86 1    
    62   28   85 1    
    63   28   29 1    
    64   29   30 am   BACKBONE|DICT|INTERRES
    65   29   87 1    
    66   30   31 2    
    67   30   32 1    
    68   32   89 1    
    69   32   33 1    
    70   32   88 1    
    71   33   90 1    
    72   33   34 1    
    73   33   91 1    
    74   34   35 2    
    75   34   36 am   BACKBONE|DICT|INTERRES
    76   36   37 1    
    77   36   38 1    
    78   37   92 1    
    79   38   39 1    
    80   38   93 1    
    81   38   94 1    
    82   39   96 1    
    83   39   40 1    
    84   39   95 1    
    85   40   98 1    
    86   40   41 1    
    87   40   97 1    
    88   41   99 1    
    89   41  100 1    
    90   41   42 1    
    91   42   43 1    
    92   42  101 1    
    93   42  102 1    
    94   43   44 am   BACKBONE|DICT|INTERRES
    95   43  103 1    
    96   44   45 2    
    97   44   46 1    
    98   46   47 1    
    99   46  104 1    
   100   46  105 1    
   101   47  106 1    
   102   47   48 1    
   103   47  107 1    
   104   48   49 2    
   105   48   50 am   BACKBONE|DICT|INTERRES
   106   50   51 1    
   107   50   52 1    
   108   52   53 1    
   109   52  108 1    
   110   52  109 1    
   111   53  111 1    
   112   53  110 1    
   113   53   54 1    
   114   54   55 1    
   115   54  112 1    
   116   54  113 1    
   117   55   56 1    
   118   55  114 1    
   119   55  115 1    
   120   56   57 1    
   121   56  116 1    
   122   56  117 1    
   123   57  118 1    
@<TRIPOS>SUBSTRUCTURE
     1 UNK         1 GROUP             0       ****    0 ROOT    
