@<TRIPOS>MOLECULE
103_c3
118   123    1
SMALL
USER_CHARGES


@<TRIPOS>ATOM
      1 Fe1         0.0847    3.5762   -0.2066 Fe        1 UNK         0.0000 
      2 O2          2.1133    6.2090    4.9680 O.2       1 UNK         0.0000 
      3 C3          1.0473    6.4338    4.4061 C.2       1 UNK         0.0000 
      4 C4          0.0382    5.2978    4.1618 C.3       1 UNK         0.0000 
      5 C5          0.6349    3.8540    3.9882 C.3       1 UNK         0.0000 
      6 C6          0.1862    3.1480    2.6926 C.2       1 UNK         0.0000 
      7 O7          0.9551    3.0946    1.7199 O.co2     1 UNK         0.0000 
      8 N8         -1.1016    2.7599    2.4986 N.am      1 UNK         0.0000 
      9 O9         -1.6068    2.4985    1.2827 O.co2     1 UNK         0.0000 
     10 C10        -2.0138    2.3946    3.6081 C.3       1 UNK         0.0000 
     11 C11        -2.4768    0.9177    3.5403 C.3       1 UNK         0.0000 
     12 C12        -1.3204   -0.0981    3.5758 C.3       1 UNK         0.0000 
     13 C13        -1.7761   -1.5636    3.4502 C.3       1 UNK         0.0000 
     14 C14        -0.5875   -2.5371    3.4801 C.3       1 UNK         0.0000 
     15 N15        -0.9881   -3.9404    3.4332 N.am      1 UNK         0.0000 
     16 C16        -0.1119   -4.9492    3.4820 C.2       1 UNK         0.0000 
     17 O17         1.0998   -4.7716    3.5843 O.2       1 UNK         0.0000 
     18 C18        -0.6828   -6.3647    3.3963 C.3       1 UNK         0.0000 
     19 C19        -0.0473   -7.2377    2.2830 C.3       1 UNK         0.0000 
     20 C20        -0.4605   -6.9142    0.8266 C.2       1 UNK         0.0000 
     21 O21        -1.1807   -5.9381    0.5965 O.2       1 UNK         0.0000 
     22 N22        -0.0699   -7.7690   -0.1567 N.am      1 UNK         0.0000 
     23 O23         0.8774   -8.7632    0.1755 O.3       1 UNK         0.0000 
     24 C24        -0.4470   -7.7282   -1.5736 C.3       1 UNK         0.0000 
     25 C25         0.7134   -7.3837   -2.5357 C.3       1 UNK         0.0000 
     26 C26         0.8936   -5.8821   -2.8379 C.3       1 UNK         0.0000 
     27 C27        -0.2563   -5.3017   -3.6923 C.3       1 UNK         0.0000 
     28 C28         0.1360   -4.1033   -4.5696 C.3       1 UNK         0.0000 
     29 N29         0.3188   -2.8673   -3.8128 N.am      1 UNK         0.0000 
     30 C30        -0.3738   -1.7455   -4.0367 C.2       1 UNK         0.0000 
     31 O31        -1.2701   -1.6670   -4.8736 O.2       1 UNK         0.0000 
     32 C32         0.0226   -0.5426   -3.1938 C.3       1 UNK         0.0000 
     33 C33        -0.6347    0.7913   -3.6454 C.3       1 UNK         0.0000 
     34 C34        -0.1161    1.8916   -2.7145 C.2       1 UNK         0.0000 
     35 O35        -0.2968    1.7565   -1.4970 O.co2     1 UNK         0.0000 
     36 N36         0.5932    2.9721   -3.1417 N.am      1 UNK         0.0000 
     37 O37         1.2880    3.7233   -2.2851 O.co2     1 UNK         0.0000 
     38 C38         0.5631    3.5375   -4.5091 C.3       1 UNK         0.0000 
     39 C39         0.0957    5.0187   -4.5720 C.3       1 UNK         0.0000 
     40 C40         0.1597    5.6415   -5.9799 C.3       1 UNK         0.0000 
     41 C41        -0.0491    7.1746   -6.0068 C.3       1 UNK         0.0000 
     42 C42        -1.4080    7.6728   -5.4666 C.3       1 UNK         0.0000 
     43 N43        -1.4026    7.9480   -4.0248 N.am      1 UNK         0.0000 
     44 C44        -2.3237    7.5364   -3.1415 C.2       1 UNK         0.0000 
     45 O45        -3.2384    6.7777   -3.4351 O.2       1 UNK         0.0000 
     46 C46        -2.2211    8.1100   -1.7224 C.3       1 UNK         0.0000 
     47 C47        -2.4170    7.0986   -0.5591 C.3       1 UNK         0.0000 
     48 C48        -1.3181    6.0204   -0.4037 C.2       1 UNK         0.0000 
     49 O49        -1.5647    4.8394   -0.7102 O.co2     1 UNK         0.0000 
     50 N50        -0.0698    6.2940    0.0741 N.am      1 UNK         0.0000 
     51 O51         0.8600    5.3476    0.2054 O.co2     1 UNK         0.0000 
     52 C52         0.4203    7.6527    0.4629 C.3       1 UNK         0.0000 
     53 C53         1.8718    7.6775    1.0542 C.3       1 UNK         0.0000 
     54 C54         2.4263    9.0005    1.5921 C.3       1 UNK         0.0000 
     55 C55         1.6098    9.6580    2.7222 C.3       1 UNK         0.0000 
     56 C56         1.5247    8.8769    4.0586 C.3       1 UNK         0.0000 
     57 N57         0.6988    7.6617    3.9859 N.am      1 UNK         0.0000 
     58 H58        -0.5381    5.5740    3.2764 H         1 UNK         0.0000 
     59 H59        -0.7139    5.3000    4.9504 H         1 UNK         0.0000 
     60 H60         1.7247    3.9151    3.9511 H         1 UNK         0.0000 
     61 H61         0.4860    3.2458    4.8801 H         1 UNK         0.0000 
     62 H62        -2.8797    3.0595    3.5771 H         1 UNK         0.0000 
     63 H63        -1.5664    2.5549    4.5913 H         1 UNK         0.0000 
     64 H64        -3.0572    0.7712    2.6321 H         1 UNK         0.0000 
     65 H65        -3.1689    0.7178    4.3528 H         1 UNK         0.0000 
     66 H66        -0.7495    0.0300    4.4965 H         1 UNK         0.0000 
     67 H67        -0.6250    0.1158    2.7602 H         1 UNK         0.0000 
     68 H68        -2.4692   -1.8020    4.2589 H         1 UNK         0.0000 
     69 H69        -2.3271   -1.6943    2.5158 H         1 UNK         0.0000 
     70 H70         0.0897   -2.3141    2.6511 H         1 UNK         0.0000 
     71 H71         0.0065   -2.3538    4.3792 H         1 UNK         0.0000 
     72 H72        -1.9506   -4.1598    3.2348 H         1 UNK         0.0000 
     73 H73        -1.7728   -6.4040    3.3706 H         1 UNK         0.0000 
     74 H74        -0.4281   -6.8146    4.3563 H         1 UNK         0.0000 
     75 H75         1.0358   -7.2995    2.4007 H         1 UNK         0.0000 
     76 H76        -0.4014   -8.2536    2.4600 H         1 UNK         0.0000 
     77 H77         0.3985   -9.5886    0.0617 H         1 UNK         0.0000 
     78 H78        -0.8289   -8.7177   -1.8286 H         1 UNK         0.0000 
     79 H79        -1.2956   -7.0615   -1.7408 H         1 UNK         0.0000 
     80 H80         1.6523   -7.7935   -2.1591 H         1 UNK         0.0000 
     81 H81         0.5398   -7.8978   -3.4829 H         1 UNK         0.0000 
     82 H82         1.8379   -5.7640   -3.3726 H         1 UNK         0.0000 
     83 H83         1.0063   -5.3177   -1.9104 H         1 UNK         0.0000 
     84 H84        -1.1071   -5.0403   -3.0603 H         1 UNK         0.0000 
     85 H85        -0.6280   -6.0717   -4.3687 H         1 UNK         0.0000 
     86 H86         1.0779   -4.3083   -5.0826 H         1 UNK         0.0000 
     87 H87        -0.5957   -3.9996   -5.3762 H         1 UNK         0.0000 
     88 H88         1.0374   -2.8557   -3.1048 H         1 UNK         0.0000 
     89 H89         1.1090   -0.4589   -3.2562 H         1 UNK         0.0000 
     90 H90        -0.2655   -0.7938   -2.1739 H         1 UNK         0.0000 
     91 H91        -0.3980    0.9977   -4.6882 H         1 UNK         0.0000 
     92 H92        -1.7202    0.7655   -3.5114 H         1 UNK         0.0000 
     93 H93         1.5726    3.4686   -4.9191 H         1 UNK         0.0000 
     94 H94        -0.0429    2.9800   -5.2242 H         1 UNK         0.0000 
     95 H95         0.7102    5.6250   -3.9085 H         1 UNK         0.0000 
     96 H96        -0.9262    5.0873   -4.2024 H         1 UNK         0.0000 
     97 H97        -0.5749    5.1632   -6.6304 H         1 UNK         0.0000 
     98 H98         1.1343    5.4297   -6.4229 H         1 UNK         0.0000 
     99 H99         0.0421    7.5077   -7.0446 H         1 UNK         0.0000 
    100 H100        0.7692    7.6707   -5.4794 H         1 UNK         0.0000 
    101 H101       -2.1928    6.9659   -5.7510 H         1 UNK         0.0000 
    102 H102       -1.6829    8.5988   -5.9772 H         1 UNK         0.0000 
    103 H103       -0.6555    8.5256   -3.6805 H         1 UNK         0.0000 
    104 H104       -1.3632    8.7617   -1.5784 H         1 UNK         0.0000 
    105 H105       -3.0595    8.8065   -1.6754 H         1 UNK         0.0000 
    106 H106       -2.4913    7.6471    0.3804 H         1 UNK         0.0000 
    107 H107       -3.4087    6.6440   -0.6419 H         1 UNK         0.0000 
    108 H108       -0.2806    8.1097    1.1711 H         1 UNK         0.0000 
    109 H109        0.4226    8.3153   -0.4076 H         1 UNK         0.0000 
    110 H110        2.5534    7.3304    0.2796 H         1 UNK         0.0000 
    111 H111        1.9632    6.9366    1.8410 H         1 UNK         0.0000 
    112 H112        2.5501    9.6945    0.7626 H         1 UNK         0.0000 
    113 H113        3.4379    8.8068    1.9571 H         1 UNK         0.0000 
    114 H114        0.6104    9.9033    2.3657 H         1 UNK         0.0000 
    115 H115        2.0791   10.6209    2.9314 H         1 UNK         0.0000 
    116 H116        1.1363    9.5305    4.8434 H         1 UNK         0.0000 
    117 H117        2.5434    8.6253    4.3695 H         1 UNK         0.0000 
    118 H118       -0.2146    7.7672    3.5822 H         1 UNK         0.0000 
@<TRIPOS>BOND
     1    1    7 nc   
     2    1    9 nc   
     3    1   35 nc   
     4    1   37 nc   
     5    1   49 nc   
     6    1   51 nc   
     7    2    3 2    
     8    3    4 1    
     9    3   57 am   BACKBONE|DICT|INTERRES
    10    4   59 1    
    11    4    5 1    
    12    4   58 1    
    13    5   61 1    
    14    5    6 1    
    15    5   60 1    
    16    6    7 2    
    17    6    8 am   BACKBONE|DICT|INTERRES
    18    8   10 1    
    19    8    9 1    
    20   10   63 1    
    21   10   11 1    
    22   10   62 1    
    23   11   12 1    
    24   11   65 1    
    25   11   64 1    
    26   12   66 1    
    27   12   13 1    
    28   12   67 1    
    29   13   14 1    
    30   13   68 1    
    31   13   69 1    
    32   14   71 1    
    33   14   15 1    
    34   14   70 1    
    35   15   16 am   BACKBONE|DICT|INTERRES
    36   15   72 1    
    37   16   17 2    
    38   16   18 1    
    39   18   74 1    
    40   18   19 1    
    41   18   73 1    
    42   19   75 1    
    43   19   76 1    
    44   19   20 1    
    45   20   21 2    
    46   20   22 am   BACKBONE|DICT|INTERRES
    47   22   23 1    
    48   22   24 1    
    49   23   77 1    
    50   24   25 1    
    51   24   78 1    
    52   24   79 1    
    53   25   80 1    
    54   25   26 1    
    55   25   81 1    
    56   26   83 1    
    57   26   27 1    
    58   26   82 1    
    59   27   84 1    
    60   27   28 1    
    61   27   85 1    
    62   28   29 1    
    63   28   86 1    
    64   28   87 1    
    65   29   88 1    
    66   29   30 am   BACKBONE|DICT|INTERRES
    67   30   32 1    
    68   30   31 2    
    69   32   90 1    
    70   32   33 1    
    71   32   89 1    
    72   33   92 1    
    73   33   34 1    
    74   33   91 1    
    75   34   35 2    
    76   34   36 am   BACKBONE|DICT|INTERRES
    77   36   37 1    
    78   36   38 1    
    79   38   39 1    
    80   38   93 1    
    81   38   94 1    
    82   39   96 1    
    83   39   95 1    
    84   39   40 1    
    85   40   41 1    
    86   40   97 1    
    87   40   98 1    
    88   41  100 1    
    89   41   42 1    
    90   41   99 1    
    91   42   43 1    
    92   42  101 1    
    93   42  102 1    
    94   43  103 1    
    95   43   44 am   BACKBONE|DICT|INTERRES
    96   44   46 1    
    97   44   45 2    
    98   46  105 1    
    99   46  104 1    
   100   46   47 1    
   101   47   48 1    
   102   47  106 1    
   103   47  107 1    
   104   48   49 2    
   105   48   50 am   BACKBONE|DICT|INTERRES
   106   50   52 1    
   107   50   51 1    
   108   52   53 1    
   109   52  108 1    
   110   52  109 1    
   111   53   54 1    
   112   53  111 1    
   113   53  110 1    
   114   54  113 1    
   115   54   55 1    
   116   54  112 1    
   117   55  115 1    
   118   55   56 1    
   119   55  114 1    
   120   56  117 1    
   121   56  116 1    
   122   56   57 1    
   123   57  118 1    
@<TRIPOS>SUBSTRUCTURE
     1 UNK         1 GROUP             0       ****    0 ROOT    
