@<TRIPOS>MOLECULE
026_r2_c1
80   87    1
SMALL
USER_CHARGES


@<TRIPOS>ATOM
      1 Fe1        -1.9312   -2.9698    0.4627 Fe        1 UNK         0.0000 
      2 C2          2.3993   -5.6549   -1.3338 C.ar      1 UNK         0.0000 
      3 C3          1.5159   -6.7497   -1.3053 C.ar      1 UNK         0.0000 
      4 C4          0.2430   -6.5940   -0.7500 C.ar      1 UNK         0.0000 
      5 C5         -0.0897   -5.3295   -0.2742 C.ar      1 UNK         0.0000 
      6 O6         -1.1944   -4.9042    0.2905 O.co2     1 UNK         0.0000 
      7 C7          0.6820   -4.2998   -0.2986 C.ar      1 UNK         0.0000 
      8 O8         -0.0959   -3.3014    0.1947 O.co2     1 UNK         0.0000 
      9 C9          2.0158   -4.3906   -0.8046 C.ar      1 UNK         0.0000 
     10 C10         3.0486   -3.3135   -0.8121 C.2       1 UNK         0.0000 
     11 O11         3.9439   -3.3734   -1.6459 O.2       1 UNK         0.0000 
     12 N12         3.0833   -2.3408    0.1401 N.am      1 UNK         0.0000 
     13 C13         4.1142   -1.3021    0.1787 C.3       1 UNK         0.0000 
     14 C14         3.4747    0.0839    0.0752 C.3       1 UNK         0.0000 
     15 C15         2.7202    0.4746    1.3651 C.3       1 UNK         0.0000 
     16 N16         1.7200    1.5563    1.2780 N.am      1 UNK         0.0000 
     17 C17         1.5537    2.3317    0.1446 C.2       1 UNK         0.0000 
     18 O18         2.4290    2.3656   -0.7082 O.2       1 UNK         0.0000 
     19 C19         0.2510    3.0355   -0.2506 C.3       1 UNK         0.0000 
     20 H20         0.5311    3.5501   -1.1985 H         1 UNK         0.0000 
     21 C21        -0.3233    4.2207    0.5851 C.3       1 UNK         0.0000 
     22 H22         0.5226    4.9193    0.7888 H         1 UNK         0.0000 
     23 C23        -1.3787    4.9820   -0.2307 C.3       1 UNK         0.0000 
     24 O24        -0.9239    3.8165    1.7821 O.3       1 UNK         0.0000 
     25 N25        -0.7256    1.9715   -0.5380 N.am      1 UNK         0.0000 
     26 C26        -1.1399    1.7105   -1.8094 C.2       1 UNK         0.0000 
     27 O27        -0.8054    2.4740   -2.7073 O.2       1 UNK         0.0000 
     28 C28        -1.9677    0.5174   -2.1962 C.ar      1 UNK         0.0000 
     29 C29        -2.2696   -0.6482   -1.4132 C.ar      1 UNK         0.0000 
     30 O30        -1.9369   -1.0468   -0.1562 O.co2     1 UNK         0.0000 
     31 C31        -2.9864   -1.6278   -1.9320 C.ar      1 UNK         0.0000 
     32 O32        -3.1049   -2.5855   -1.0367 O.co2     1 UNK         0.0000 
     33 C33        -3.5038   -1.6337   -3.2229 C.ar      1 UNK         0.0000 
     34 C34        -3.2422   -0.5350   -4.0315 C.ar      1 UNK         0.0000 
     35 C35        -2.4805    0.5264   -3.5286 C.ar      1 UNK         0.0000 
     36 C36         0.8563    1.7809    2.4412 C.3       1 UNK         0.0000 
     37 C37         0.9584    0.7512    3.5746 C.3       1 UNK         0.0000 
     38 C38         0.1431    1.1970    4.7969 C.3       1 UNK         0.0000 
     39 C39        -0.2511   -0.0274    5.6314 C.3       1 UNK         0.0000 
     40 N40        -1.2038   -0.8237    4.8724 N.am      1 UNK         0.0000 
     41 C41        -2.4685   -0.3760    4.6226 C.2       1 UNK         0.0000 
     42 O42        -2.8543    0.6605    5.1488 O.2       1 UNK         0.0000 
     43 C43        -3.4383   -1.1365    3.7951 C.ar      1 UNK         0.0000 
     44 C44        -3.1167   -2.0643    2.7708 C.ar      1 UNK         0.0000 
     45 O45        -1.9983   -2.5262    2.1359 O.co2     1 UNK         0.0000 
     46 C46        -4.0033   -2.7020    2.1542 C.ar      1 UNK         0.0000 
     47 O47        -3.2565   -3.4546    1.3480 O.co2     1 UNK         0.0000 
     48 C48        -5.3768   -2.5846    2.3370 C.ar      1 UNK         0.0000 
     49 C49        -5.7972   -1.6476    3.2897 C.ar      1 UNK         0.0000 
     50 C50        -4.8308   -0.9216    4.0195 C.ar      1 UNK         0.0000 
     51 H51         3.3898   -5.8098   -1.7440 H         1 UNK         0.0000 
     52 H52         1.8253   -7.7105   -1.6955 H         1 UNK         0.0000 
     53 H53        -0.4557   -7.4187   -0.6990 H         1 UNK         0.0000 
     54 H54         2.3847   -2.3723    0.8910 H         1 UNK         0.0000 
     55 H55         4.7168   -1.3843    1.1090 H         1 UNK         0.0000 
     56 H56         4.8119   -1.4074   -0.6791 H         1 UNK         0.0000 
     57 H57         4.2607    0.8476   -0.1131 H         1 UNK         0.0000 
     58 H58         2.7878    0.0213   -0.7975 H         1 UNK         0.0000 
     59 H59         2.1445   -0.4221    1.6365 H         1 UNK         0.0000 
     60 H60         3.4541    0.6756    2.1753 H         1 UNK         0.0000 
     61 H61        -2.2386    4.3204   -0.4703 H         1 UNK         0.0000 
     62 H62        -0.9433    5.3638   -1.1790 H         1 UNK         0.0000 
     63 H63        -1.7517    5.8522    0.3498 H         1 UNK         0.0000 
     64 H64        -0.8784    4.5875    2.4064 H         1 UNK         0.0000 
     65 H65        -1.0405    1.3484    0.2152 H         1 UNK         0.0000 
     66 H66        -4.0815   -2.4713   -3.5921 H         1 UNK         0.0000 
     67 H67        -3.6187   -0.5048   -5.0459 H         1 UNK         0.0000 
     68 H68        -2.2969    1.3565   -4.1991 H         1 UNK         0.0000 
     69 H69         1.0904    2.7901    2.8460 H         1 UNK         0.0000 
     70 H70        -0.1997    1.7041    2.1446 H         1 UNK         0.0000 
     71 H71         1.9964    0.5666    3.9238 H         1 UNK         0.0000 
     72 H72         0.5471   -0.1928    3.1548 H         1 UNK         0.0000 
     73 H73        -0.7815    1.7240    4.4843 H         1 UNK         0.0000 
     74 H74         0.7458    1.9228    5.3845 H         1 UNK         0.0000 
     75 H75        -0.7096    0.2751    6.5977 H         1 UNK         0.0000 
     76 H76         0.6622   -0.6212    5.8558 H         1 UNK         0.0000 
     77 H77        -0.9064   -1.7520    4.5477 H         1 UNK         0.0000 
     78 H78        -6.0808   -3.1685    1.7587 H         1 UNK         0.0000 
     79 H79        -6.8527   -1.4896    3.4692 H         1 UNK         0.0000 
     80 H80        -5.1740   -0.2144    4.7642 H         1 UNK         0.0000 
@<TRIPOS>BOND
     1    1    6 nc   
     2    1    8 nc   
     3    1   30 nc   
     4    1   32 nc   
     5    1   45 nc   
     6    1   47 nc   
     7    2    3 ar   
     8    2    9 ar   
     9    2   51 1    
    10    3    4 ar   
    11    3   52 1    
    12    4   53 1    
    13    4    5 ar   
    14    5    6 1    
    15    5    7 ar   
    16    7    8 1    
    17    7    9 ar   
    18    9   10 1    
    19   10   12 am   BACKBONE|DICT|INTERRES
    20   10   11 2    
    21   12   13 1    
    22   12   54 1    
    23   13   55 1    
    24   13   14 1    
    25   13   56 1    
    26   14   15 1    
    27   14   57 1    
    28   14   58 1    
    29   15   59 1    
    30   15   60 1    
    31   15   16 1    
    32   16   36 1    
    33   16   17 am   BACKBONE|DICT|INTERRES
    34   17   18 2    
    35   17   19 1    
    36   19   20 1    
    37   19   21 1    
    38   19   25 1    
    39   21   22 1    
    40   21   24 1    
    41   21   23 1    
    42   23   63 1    
    43   23   61 1    
    44   23   62 1    
    45   24   64 1    
    46   25   65 1    
    47   25   26 am   BACKBONE|DICT|INTERRES
    48   26   27 2    
    49   26   28 1    
    50   28   29 ar   
    51   28   35 ar   
    52   29   30 1    
    53   29   31 ar   
    54   31   32 1    
    55   31   33 ar   
    56   33   34 ar   
    57   33   66 1    
    58   34   35 ar   
    59   34   67 1    
    60   35   68 1    
    61   36   69 1    
    62   36   37 1    
    63   36   70 1    
    64   37   71 1    
    65   37   38 1    
    66   37   72 1    
    67   38   74 1    
    68   38   39 1    
    69   38   73 1    
    70   39   76 1    
    71   39   75 1    
    72   39   40 1    
    73   40   41 am   BACKBONE|DICT|INTERRES
    74   40   77 1    
    75   41   42 2    
    76   41   43 1    
    77   43   50 ar   
    78   43   44 ar   
    79   44   45 1    
    80   44   46 ar   
    81   46   48 ar   
    82   46   47 1    
    83   48   49 ar   
    84   48   78 1    
    85   49   79 1    
    86   49   50 ar   
    87   50   80 1    
@<TRIPOS>SUBSTRUCTURE
     1 UNK         1 GROUP             0       ****    0 ROOT    
