@<TRIPOS>MOLECULE
098_c1
92   96    1
SMALL
USER_CHARGES


@<TRIPOS>ATOM
      1 Fe1        -0.0875    0.4348   -0.1571 Fe        1 UNK         0.0000 
      2 O2         -2.6435   -3.9852    3.1910 O.3       1 UNK         0.0000 
      3 C3         -3.2173   -3.3496    2.1444 C.2       1 UNK         0.0000 
      4 O4         -3.5996   -3.9443    1.1446 O.2       1 UNK         0.0000 
      5 C5         -3.4087   -1.8399    2.3680 C.3       1 UNK         0.0000 
      6 C6         -2.2816   -1.0805    3.1410 C.3       1 UNK         0.0000 
      7 C7         -1.1333   -0.5603    2.2571 C.2       1 UNK         0.0000 
      8 O8         -1.3171    0.0312    1.1892 O.co2     1 UNK         0.0000 
      9 N9          0.1847   -0.7028    2.5179 N.am      1 UNK         0.0000 
     10 O10         1.0464   -0.2178    1.6142 O.co2     1 UNK         0.0000 
     11 C11         0.7648   -1.4411    3.6469 C.3       1 UNK         0.0000 
     12 C12         0.9064   -2.9574    3.3887 C.3       1 UNK         0.0000 
     13 C13         1.8864   -3.3475    2.2575 C.3       1 UNK         0.0000 
     14 C14         1.9733   -4.8727    1.9862 C.3       1 UNK         0.0000 
     15 C15         0.6809   -5.6116    1.5469 C.3       1 UNK         0.0000 
     16 N16         0.2552   -5.3637    0.1587 N.am      1 UNK         0.0000 
     17 C17        -0.4163   -4.2781   -0.2528 C.2       1 UNK         0.0000 
     18 O18        -0.7091   -3.3677    0.5135 O.2       1 UNK         0.0000 
     19 C19        -0.8266   -4.2045   -1.7375 C.3       1 UNK         0.0000 
     20 C20        -1.5170   -2.8859   -2.2025 C.3       1 UNK         0.0000 
     21 C21        -0.6868   -1.6349   -1.9174 C.2       1 UNK         0.0000 
     22 O22        -0.8485   -0.9280   -0.9252 O.co2     1 UNK         0.0000 
     23 N23         0.3393   -1.1670   -2.6419 N.am      1 UNK         0.0000 
     24 O24         0.9574   -0.1004   -2.1059 O.co2     1 UNK         0.0000 
     25 C25         0.5267   -1.4107   -4.0664 C.3       1 UNK         0.0000 
     26 C26        -0.3047   -0.4009   -4.8735 C.3       1 UNK         0.0000 
     27 C27        -0.0115   -0.3590   -6.3756 C.3       1 UNK         0.0000 
     28 C28        -0.9417    0.6149   -7.1394 C.3       1 UNK         0.0000 
     29 C29        -0.9224    2.0902   -6.6659 C.3       1 UNK         0.0000 
     30 N30        -1.7552    2.3326   -5.4775 N.am      1 UNK         0.0000 
     31 C31        -1.4043    3.0887   -4.4233 C.2       1 UNK         0.0000 
     32 O32        -0.3463    3.7073   -4.3646 O.2       1 UNK         0.0000 
     33 C33        -2.4164    3.1816   -3.2700 C.3       1 UNK         0.0000 
     34 C34        -1.8772    3.7952   -1.9409 C.3       1 UNK         0.0000 
     35 C35        -0.9785    2.8554   -1.1236 C.2       1 UNK         0.0000 
     36 O36        -1.2162    1.6605   -0.9345 O.co2     1 UNK         0.0000 
     37 N37         0.1643    3.2035   -0.4980 N.am      1 UNK         0.0000 
     38 O38         0.8016    2.2039    0.1143 O.co2     1 UNK         0.0000 
     39 C39         0.6759    4.5616   -0.2943 C.3       1 UNK         0.0000 
     40 C40         0.1242    5.1702    1.0128 C.3       1 UNK         0.0000 
     41 C41         0.7597    6.5008    1.4561 C.3       1 UNK         0.0000 
     42 C42         0.5401    7.6905    0.4986 C.3       1 UNK         0.0000 
     43 C43         1.0971    8.9947    1.0938 C.3       1 UNK         0.0000 
     44 N44         0.8765   10.1634    0.1203 N.4       1 UNK         0.0000 
     45 H45         1.3485   10.0006   -0.7585 H         1 UNK         0.0000 
     46 H46         1.2509   11.0055    0.5265 H         1 UNK         0.0000 
     47 H47        -0.1079   10.3085   -0.0581 H         1 UNK         0.0000 
     48 H48        -4.3188   -1.7980    2.9623 H         1 UNK         0.0000 
     49 H49        -3.6663   -1.3604    1.4254 H         1 UNK         0.0000 
     50 H50        -2.7197   -0.1599    3.5144 H         1 UNK         0.0000 
     51 H51        -1.9587   -1.6101    4.0372 H         1 UNK         0.0000 
     52 H52         1.7440   -1.0086    3.8693 H         1 UNK         0.0000 
     53 H53         0.1738   -1.2830    4.5467 H         1 UNK         0.0000 
     54 H54        -0.0827   -3.3592    3.1821 H         1 UNK         0.0000 
     55 H55         1.2307   -3.4332    4.3136 H         1 UNK         0.0000 
     56 H56         1.6468   -2.8131    1.3369 H         1 UNK         0.0000 
     57 H57         2.8824   -2.9836    2.5258 H         1 UNK         0.0000 
     58 H58         2.7562   -5.0522    1.2457 H         1 UNK         0.0000 
     59 H59         2.3268   -5.3457    2.9035 H         1 UNK         0.0000 
     60 H60         0.8208   -6.6874    1.6793 H         1 UNK         0.0000 
     61 H61        -0.1425   -5.3618    2.2209 H         1 UNK         0.0000 
     62 H62         0.4897   -6.0593   -0.5334 H         1 UNK         0.0000 
     63 H63        -1.5291   -5.0167   -1.9086 H         1 UNK         0.0000 
     64 H64         0.0116   -4.4544   -2.3856 H         1 UNK         0.0000 
     65 H65        -1.7573   -2.9302   -3.2649 H         1 UNK         0.0000 
     66 H66        -2.4951   -2.7986   -1.7275 H         1 UNK         0.0000 
     67 H67         0.2560   -2.4296   -4.3384 H         1 UNK         0.0000 
     68 H68         1.5893   -1.3219   -4.3085 H         1 UNK         0.0000 
     69 H69        -0.0961    0.5877   -4.4642 H         1 UNK         0.0000 
     70 H70        -1.3666   -0.6046   -4.7082 H         1 UNK         0.0000 
     71 H71         1.0321   -0.0649   -6.5156 H         1 UNK         0.0000 
     72 H72        -0.1079   -1.3624   -6.8023 H         1 UNK         0.0000 
     73 H73        -1.9661    0.2376   -7.1239 H         1 UNK         0.0000 
     74 H74        -0.6427    0.5948   -8.1895 H         1 UNK         0.0000 
     75 H75         0.1173    2.3757   -6.4814 H         1 UNK         0.0000 
     76 H76        -1.2548    2.7487   -7.4724 H         1 UNK         0.0000 
     77 H77        -2.6793    1.9343   -5.4823 H         1 UNK         0.0000 
     78 H78        -2.9508    2.2443   -3.1061 H         1 UNK         0.0000 
     79 H79        -3.1843    3.8615   -3.6432 H         1 UNK         0.0000 
     80 H80        -1.4579    4.7833   -2.1070 H         1 UNK         0.0000 
     81 H81        -2.7300    3.9856   -1.2935 H         1 UNK         0.0000 
     82 H82         0.4534    5.2081   -1.1425 H         1 UNK         0.0000 
     83 H83         1.7681    4.5147   -0.2645 H         1 UNK         0.0000 
     84 H84         0.2770    4.4424    1.8129 H         1 UNK         0.0000 
     85 H85        -0.9565    5.2971    0.9180 H         1 UNK         0.0000 
     86 H86         1.8263    6.3420    1.6259 H         1 UNK         0.0000 
     87 H87         0.3377    6.7411    2.4337 H         1 UNK         0.0000 
     88 H88        -0.5272    7.7956    0.2890 H         1 UNK         0.0000 
     89 H89         1.0250    7.4781   -0.4569 H         1 UNK         0.0000 
     90 H90         2.1761    8.9529    1.2640 H         1 UNK         0.0000 
     91 H91         0.5919    9.2877    2.0181 H         1 UNK         0.0000 
     92 H92        -2.5126   -4.8815    2.8783 H         1 UNK         0.0000 
@<TRIPOS>BOND
     1    1    8 nc   
     2    1   10 nc   
     3    1   22 nc   
     4    1   24 nc   
     5    1   36 nc   
     6    1   38 nc   
     7    2    3 1    
     8    2   92 1    
     9    3    5 1    
    10    3    4 2    
    11    5   48 1    
    12    5    6 1    
    13    5   49 1    
    14    6   50 1    
    15    6   51 1    
    16    6    7 1    
    17    7    9 am   BACKBONE|DICT|INTERRES
    18    7    8 2    
    19    9   11 1    
    20    9   10 1    
    21   11   52 1    
    22   11   53 1    
    23   11   12 1    
    24   12   55 1    
    25   12   13 1    
    26   12   54 1    
    27   13   57 1    
    28   13   14 1    
    29   13   56 1    
    30   14   59 1    
    31   14   15 1    
    32   14   58 1    
    33   15   60 1    
    34   15   61 1    
    35   15   16 1    
    36   16   17 am   BACKBONE|DICT|INTERRES
    37   16   62 1    
    38   17   18 2    
    39   17   19 1    
    40   19   20 1    
    41   19   63 1    
    42   19   64 1    
    43   20   21 1    
    44   20   66 1    
    45   20   65 1    
    46   21   22 2    
    47   21   23 am   BACKBONE|DICT|INTERRES
    48   23   24 1    
    49   23   25 1    
    50   25   26 1    
    51   25   67 1    
    52   25   68 1    
    53   26   70 1    
    54   26   69 1    
    55   26   27 1    
    56   27   28 1    
    57   27   71 1    
    58   27   72 1    
    59   28   29 1    
    60   28   73 1    
    61   28   74 1    
    62   29   75 1    
    63   29   30 1    
    64   29   76 1    
    65   30   31 am   BACKBONE|DICT|INTERRES
    66   30   77 1    
    67   31   32 2    
    68   31   33 1    
    69   33   78 1    
    70   33   34 1    
    71   33   79 1    
    72   34   81 1    
    73   34   35 1    
    74   34   80 1    
    75   35   36 2    
    76   35   37 am   BACKBONE|DICT|INTERRES
    77   37   39 1    
    78   37   38 1    
    79   39   83 1    
    80   39   40 1    
    81   39   82 1    
    82   40   41 1    
    83   40   84 1    
    84   40   85 1    
    85   41   86 1    
    86   41   87 1    
    87   41   42 1    
    88   42   43 1    
    89   42   88 1    
    90   42   89 1    
    91   43   90 1    
    92   43   91 1    
    93   43   44 1    
    94   44   46 1    
    95   44   45 1    
    96   44   47 1    
@<TRIPOS>SUBSTRUCTURE
     1 UNK         1 GROUP             0       ****    0 ROOT    
