@<TRIPOS>MOLECULE
085_c1
54   58    1
SMALL
USER_CHARGES


@<TRIPOS>ATOM
      1 O1         -4.0521   -3.5950    0.1000 O.co2     1 UNK         0.0000 
      2 C2         -4.5852   -2.4726    0.3105 C.2       1 UNK         0.0000 
      3 O3         -5.2861   -2.2615    1.3269 O.co2     1 UNK         0.0000 
      4 C4         -4.7410   -1.4761   -0.8767 C.3       1 UNK         0.0000 
      5 C5         -3.6407   -0.3686   -1.2094 C.3       1 UNK         0.0000 
      6 C6         -3.5270    0.6840   -0.0090 C.2       1 UNK         0.0000 
      7 O7         -2.3560    0.9153    0.4209 O.co2     1 UNK         0.0000 
      8 O8         -4.5596    1.3228    0.3371 O.co2     1 UNK         0.0000 
      9 O9         -2.3947   -1.0166   -1.4692 O.co2     1 UNK         0.0000 
     10 C10        -4.2137    0.4654   -2.4541 C.3       1 UNK         0.0000 
     11 C11        -3.4397    1.6840   -3.0665 C.2       1 UNK         0.0000 
     12 O12        -3.5789    2.8434   -2.6632 O.2       1 UNK         0.0000 
     13 N13        -2.7031    1.4213   -4.1703 N.am      1 UNK         0.0000 
     14 C14        -1.2359    1.6209   -4.3273 C.3       1 UNK         0.0000 
     15 H15        -1.0041    1.2573   -5.3313 H         1 UNK         0.0000 
     16 C16        -0.6170    0.5797   -3.3427 C.2       1 UNK         0.0000 
     17 O17        -0.1140   -0.3914   -3.9554 O.co2     1 UNK         0.0000 
     18 O18        -0.5959    0.9984   -2.1254 O.co2     1 UNK         0.0000 
     19 C19        -0.5976    3.0737   -4.2622 C.3       1 UNK         0.0000 
     20 C20         0.9691    3.1857   -4.5729 C.3       1 UNK         0.0000 
     21 C21         1.8240    2.1958   -3.7270 C.3       1 UNK         0.0000 
     22 C22         3.3477    2.0368   -3.6339 C.3       1 UNK         0.0000 
     23 N23         3.5581    0.8468   -2.7644 N.am      1 UNK         0.0000 
     24 C24         3.7210    0.9030   -1.4290 C.2       1 UNK         0.0000 
     25 O25         4.1132    1.9438   -0.8912 O.2       1 UNK         0.0000 
     26 C26         3.4372   -0.3953   -0.5979 C.3       1 UNK         0.0000 
     27 C27         1.9880   -0.6100   -0.0058 C.3       1 UNK         0.0000 
     28 C28         1.6219    0.6752    0.8776 C.2       1 UNK         0.0000 
     29 O29         0.4471    1.1190    0.6884 O.co2     1 UNK         0.0000 
     30 O30         2.4291    1.1001    1.7408 O.co2     1 UNK         0.0000 
     31 O31         1.0571   -0.8963   -1.0341 O.co2     1 UNK         0.0000 
     32 C32         1.8172   -1.8592    0.9667 C.3       1 UNK         0.0000 
     33 C33         0.4147   -2.1107    1.6296 C.2       1 UNK         0.0000 
     34 O34        -0.6283   -1.5128    1.1868 O.co2     1 UNK         0.0000 
     35 O35         0.4470   -2.9188    2.5959 O.co2     1 UNK         0.0000 
     36 H36        -4.8604   -2.1055   -1.7494 H         1 UNK         0.0000 
     37 H37        -5.6914   -0.9807   -0.6978 H         1 UNK         0.0000 
     38 H38        -4.3846   -0.2528   -3.2481 H         1 UNK         0.0000 
     39 H39        -5.2151    0.8209   -2.2040 H         1 UNK         0.0000 
     40 H40        -2.8898    0.4620   -4.4177 H         1 UNK         0.0000 
     41 H41        -0.7998    3.5079   -3.2796 H         1 UNK         0.0000 
     42 H42        -1.1475    3.7084   -4.9572 H         1 UNK         0.0000 
     43 H43         1.2994    4.2125   -4.3828 H         1 UNK         0.0000 
     44 H44         1.1516    3.0017   -5.6376 H         1 UNK         0.0000 
     45 H45         1.4566    2.2619   -2.6998 H         1 UNK         0.0000 
     46 H46         1.5928    1.2318   -4.1628 H         1 UNK         0.0000 
     47 H47         3.8042    2.9544   -3.2505 H         1 UNK         0.0000 
     48 H48         3.7804    1.8901   -4.6275 H         1 UNK         0.0000 
     49 H49         3.0807   -0.0103   -3.0237 H         1 UNK         0.0000 
     50 H50         4.1601   -0.4314    0.2112 H         1 UNK         0.0000 
     51 H51         3.6558   -1.2553   -1.2178 H         1 UNK         0.0000 
     52 H52         2.5113   -1.7899    1.7988 H         1 UNK         0.0000 
     53 H53         2.0452   -2.7750    0.4251 H         1 UNK         0.0000 
     54 Fe54       -0.7785   -0.1193   -0.3869 Fe        1 UNK         0.0000 
@<TRIPOS>BOND
     1    1    2 1    
     2    2    3 2    
     3    2    4 1    
     4    4   36 1    
     5    4   37 1    
     6    4    5 1    
     7    5    6 1    
     8    5    9 1    
     9    5   10 1    
    10    6    7 1    
    11    6    8 2    
    12    7   54 nc   
    13    9   54 nc   
    14   10   11 1    
    15   10   38 1    
    16   10   39 1    
    17   11   12 2    
    18   11   13 am   BACKBONE|DICT|INTERRES
    19   13   40 1    
    20   13   14 1    
    21   14   16 1    
    22   14   19 1    
    23   14   15 1    
    24   16   17 2    
    25   16   18 1    
    26   18   54 nc   
    27   19   20 1    
    28   19   41 1    
    29   19   42 1    
    30   20   21 1    
    31   20   43 1    
    32   20   44 1    
    33   21   22 1    
    34   21   45 1    
    35   21   46 1    
    36   22   23 1    
    37   22   47 1    
    38   22   48 1    
    39   23   24 am   BACKBONE|DICT|INTERRES
    40   23   49 1    
    41   24   25 2    
    42   24   26 1    
    43   26   27 1    
    44   26   50 1    
    45   26   51 1    
    46   27   28 1    
    47   27   31 1    
    48   27   32 1    
    49   28   29 2    
    50   28   30 1    
    51   29   54 nc   
    52   31   54 nc   
    53   32   33 1    
    54   32   52 1    
    55   32   53 1    
    56   33   34 1    
    57   33   35 2    
    58   34   54 nc   
@<TRIPOS>SUBSTRUCTURE
     1 UNK         1 GROUP             0       ****    0 ROOT    
