@<TRIPOS>MOLECULE
207_c1
102   108    1
SMALL
USER_CHARGES


@<TRIPOS>ATOM
      1 Fe1         0.4903   -0.3331    2.1183 Fe        1 UNK         0.0000 
      2 C2          1.9420    4.3771    3.7686 C.ar      1 UNK         0.0000 
      3 C3          2.3170    3.0451    3.8775 C.ar      1 UNK         0.0000 
      4 C4          1.4214    2.0477    3.5406 C.ar      1 UNK         0.0000 
      5 O5          1.7923    0.8331    3.6000 O.co2     1 UNK         0.0000 
      6 C6          0.1292    2.3821    3.1190 C.ar      1 UNK         0.0000 
      7 O7         -0.5911    1.4287    2.6800 O.co2     1 UNK         0.0000 
      8 C8         -0.3297    3.7194    3.1428 C.ar      1 UNK         0.0000 
      9 S9         -2.1319    4.0426    2.8146 S.3       1 UNK         0.0000 
     10 O10        -2.5184    5.4199    3.1631 O.2       1 UNK         0.0000 
     11 O11        -3.0189    2.9508    3.2247 O.2       1 UNK         0.0000 
     12 O12        -2.0428    3.9645    1.1790 O.3       1 UNK         0.0000 
     13 C13         0.6353    4.7440    3.3828 C.ar      1 UNK         0.0000 
     14 C14         0.4050    6.2403    3.2341 C.2       1 UNK         0.0000 
     15 O15         1.0013    7.0498    3.9541 O.2       1 UNK         0.0000 
     16 N16        -0.3906    6.7003    2.2453 N.am      1 UNK         0.0000 
     17 C17        -0.7255    8.1233    2.1325 C.3       1 UNK         0.0000 
     18 C18        -1.8541    8.4258    1.1303 C.3       1 UNK         0.0000 
     19 C19        -1.7319    7.7853   -0.2582 C.3       1 UNK         0.0000 
     20 N20        -0.3174    8.0422   -0.8154 N.4       1 UNK         0.0000 
     21 H21         0.3403    7.4623   -0.3044 H         1 UNK         0.0000 
     22 H22        -0.0843    9.0072   -0.6224 H         1 UNK         0.0000 
     23 C23        -0.1459    7.8140   -2.3302 C.3       1 UNK         0.0000 
     24 C24         0.2749    6.3700   -2.6433 C.3       1 UNK         0.0000 
     25 C25        -0.7694    5.2966   -2.2821 C.3       1 UNK         0.0000 
     26 C26        -0.4840    3.9400   -2.9430 C.3       1 UNK         0.0000 
     27 N27        -1.5566    2.9757   -2.7044 N.am      1 UNK         0.0000 
     28 C28        -1.4363    1.6873   -2.3463 C.2       1 UNK         0.0000 
     29 O29        -2.4361    0.9906   -2.5019 O.2       1 UNK         0.0000 
     30 C30        -0.0516    1.1792   -1.8611 C.3       1 UNK         0.0000 
     31 C31         0.1614   -0.2226   -1.1768 C.3       1 UNK         0.0000 
     32 O32        -0.6288   -0.3464   -0.0122 O.co2     1 UNK         0.0000 
     33 C33         1.6716   -0.2300   -0.7030 C.2       1 UNK         0.0000 
     34 O34         1.8026   -0.2406    0.5536 O.co2     1 UNK         0.0000 
     35 O35         2.5996   -0.0889   -1.5498 O.co2     1 UNK         0.0000 
     36 C36        -0.0426   -1.3773   -2.2193 C.3       1 UNK         0.0000 
     37 C37         0.0416   -2.8667   -1.7978 C.2       1 UNK         0.0000 
     38 O38         0.8437   -3.3257   -0.9779 O.2       1 UNK         0.0000 
     39 N39        -0.7740   -3.6862   -2.4936 N.am      1 UNK         0.0000 
     40 C40        -0.9602   -5.1027   -2.1944 C.3       1 UNK         0.0000 
     41 C41         0.2421   -5.9949   -2.5871 C.3       1 UNK         0.0000 
     42 C42         0.2408   -7.3285   -1.8162 C.3       1 UNK         0.0000 
     43 C43         1.4738   -8.2046   -2.1043 C.3       1 UNK         0.0000 
     44 N44         1.7216   -9.1230   -0.8945 N.4       1 UNK         0.0000 
     45 H45         0.8202   -9.4263   -0.5480 H         1 UNK         0.0000 
     46 H46         2.2345   -9.9416   -1.1842 H         1 UNK         0.0000 
     47 C47         2.4924   -8.4275    0.2449 C.3       1 UNK         0.0000 
     48 C48         2.1897   -9.1337    1.5765 C.3       1 UNK         0.0000 
     49 C49         2.6385   -8.3138    2.8107 C.3       1 UNK         0.0000 
     50 N50         2.0517   -6.9714    2.8751 N.am      1 UNK         0.0000 
     51 C51         0.7375   -6.7023    3.0169 C.2       1 UNK         0.0000 
     52 O52        -0.0745   -7.6277    3.0650 O.2       1 UNK         0.0000 
     53 C53         0.3148   -5.2494    3.0613 C.ar      1 UNK         0.0000 
     54 C54         1.2241   -4.1885    2.8683 C.ar      1 UNK         0.0000 
     55 C55         0.7626   -2.8685    2.8523 C.ar      1 UNK         0.0000 
     56 O56         1.4932   -1.8618    2.5996 O.co2     1 UNK         0.0000 
     57 C57        -0.5846   -2.5852    3.0357 C.ar      1 UNK         0.0000 
     58 O58        -0.9464   -1.3659    2.9271 O.co2     1 UNK         0.0000 
     59 C59        -1.4944   -3.6152    3.2587 C.ar      1 UNK         0.0000 
     60 C60        -1.0516   -4.9408    3.2715 C.ar      1 UNK         0.0000 
     61 H61         2.7040    5.1119    3.9882 H         1 UNK         0.0000 
     62 H62         3.3160    2.7697    4.1813 H         1 UNK         0.0000 
     63 H63        -1.1024    6.0328    1.9748 H         1 UNK         0.0000 
     64 H64        -1.0354    8.4944    3.1142 H         1 UNK         0.0000 
     65 H65         0.1851    8.6575    1.8505 H         1 UNK         0.0000 
     66 H66        -1.9358    9.5093    1.0310 H         1 UNK         0.0000 
     67 H67        -2.8028    8.1014    1.5633 H         1 UNK         0.0000 
     68 H68        -2.4548    8.2208   -0.9552 H         1 UNK         0.0000 
     69 H69        -1.8695    6.7044   -0.2155 H         1 UNK         0.0000 
     70 H70         0.6562    8.4994   -2.6145 H         1 UNK         0.0000 
     71 H71        -1.0697    8.1239   -2.8312 H         1 UNK         0.0000 
     72 H72         1.2219    6.1379   -2.1496 H         1 UNK         0.0000 
     73 H73         0.4823    6.3330   -3.7165 H         1 UNK         0.0000 
     74 H74        -1.7691    5.6280   -2.5754 H         1 UNK         0.0000 
     75 H75        -0.7736    5.1331   -1.2027 H         1 UNK         0.0000 
     76 H76         0.5005    3.5826   -2.6249 H         1 UNK         0.0000 
     77 H77        -0.3887    4.0620   -4.0245 H         1 UNK         0.0000 
     78 H78        -2.4973    3.1934   -2.9872 H         1 UNK         0.0000 
     79 H79         0.6249    1.2504   -2.7139 H         1 UNK         0.0000 
     80 H80         0.2972    1.9257   -1.1453 H         1 UNK         0.0000 
     81 H81         0.6549   -1.2566   -3.0432 H         1 UNK         0.0000 
     82 H82        -1.0255   -1.2308   -2.6616 H         1 UNK         0.0000 
     83 H83        -1.3680   -3.2364   -3.1729 H         1 UNK         0.0000 
     84 H84        -1.8654   -5.4732   -2.6790 H         1 UNK         0.0000 
     85 H85        -1.1542   -5.1786   -1.1178 H         1 UNK         0.0000 
     86 H86         0.2454   -6.1630   -3.6681 H         1 UNK         0.0000 
     87 H87         1.1754   -5.4681   -2.3596 H         1 UNK         0.0000 
     88 H88         0.1748   -7.0833   -0.7523 H         1 UNK         0.0000 
     89 H89        -0.6648   -7.8928   -2.0569 H         1 UNK         0.0000 
     90 H90         1.3114   -8.8555   -2.9666 H         1 UNK         0.0000 
     91 H91         2.3939   -7.6315   -2.2512 H         1 UNK         0.0000 
     92 H92         2.1570   -7.3879    0.2656 H         1 UNK         0.0000 
     93 H93         3.5526   -8.4627   -0.0179 H         1 UNK         0.0000 
     94 H94         2.6798  -10.1105    1.6074 H         1 UNK         0.0000 
     95 H95         1.1183   -9.3387    1.6581 H         1 UNK         0.0000 
     96 H96         3.7195   -8.1755    2.7752 H         1 UNK         0.0000 
     97 H97         2.4108   -8.8560    3.7330 H         1 UNK         0.0000 
     98 H98         2.6611   -6.1654    2.9114 H         1 UNK         0.0000 
     99 H99         2.2762   -4.3406    2.6879 H         1 UNK         0.0000 
    100 H100       -2.5330   -3.3704    3.3892 H         1 UNK         0.0000 
    101 H101       -1.7741   -5.7247    3.4280 H         1 UNK         0.0000 
    102 H102       -1.8729    3.0015    1.0234 H         1 UNK         0.0000 
@<TRIPOS>BOND
     1    1    5 nc   
     2    1    7 nc   
     3    1   32 nc   
     4    1   34 nc   
     5    1   56 nc   
     6    1   58 nc   
     7    2    3 ar   
     8    2   61 1    
     9    2   13 ar   
    10    3   62 1    
    11    3    4 ar   
    12    4    5 1    
    13    4    6 ar   
    14    6    7 1    
    15    6    8 ar   
    16    8   13 ar   
    17    8    9 1    
    18    9   11 2    
    19    9   10 2    
    20    9   12 1    
    21   12  102 1    
    22   13   14 1    
    23   14   15 2    
    24   14   16 am   BACKBONE|DICT|INTERRES
    25   16   17 1    
    26   16   63 1    
    27   17   64 1    
    28   17   18 1    
    29   17   65 1    
    30   18   67 1    
    31   18   19 1    
    32   18   66 1    
    33   19   69 1    
    34   19   20 1    
    35   19   68 1    
    36   20   22 1    
    37   20   21 1    
    38   20   23 1    
    39   23   24 1    
    40   23   70 1    
    41   23   71 1    
    42   24   25 1    
    43   24   72 1    
    44   24   73 1    
    45   25   75 1    
    46   25   26 1    
    47   25   74 1    
    48   26   27 1    
    49   26   76 1    
    50   26   77 1    
    51   27   28 am   BACKBONE|DICT|INTERRES
    52   27   78 1    
    53   28   29 2    
    54   28   30 1    
    55   30   31 1    
    56   30   80 1    
    57   30   79 1    
    58   31   33 1    
    59   31   32 1    
    60   31   36 1    
    61   33   34 1    
    62   33   35 2    
    63   36   37 1    
    64   36   81 1    
    65   36   82 1    
    66   37   38 2    
    67   37   39 am   BACKBONE|DICT|INTERRES
    68   39   40 1    
    69   39   83 1    
    70   40   85 1    
    71   40   41 1    
    72   40   84 1    
    73   41   87 1    
    74   41   42 1    
    75   41   86 1    
    76   42   88 1    
    77   42   43 1    
    78   42   89 1    
    79   43   44 1    
    80   43   90 1    
    81   43   91 1    
    82   44   45 1    
    83   44   47 1    
    84   44   46 1    
    85   47   92 1    
    86   47   48 1    
    87   47   93 1    
    88   48   95 1    
    89   48   49 1    
    90   48   94 1    
    91   49   50 1    
    92   49   97 1    
    93   49   96 1    
    94   50   51 am   BACKBONE|DICT|INTERRES
    95   50   98 1    
    96   51   52 2    
    97   51   53 1    
    98   53   60 ar   
    99   53   54 ar   
   100   54   55 ar   
   101   54   99 1    
   102   55   57 ar   
   103   55   56 1    
   104   57   59 ar   
   105   57   58 1    
   106   59   60 ar   
   107   59  100 1    
   108   60  101 1    
@<TRIPOS>SUBSTRUCTURE
     1 UNK         1 GROUP             0       ****    0 ROOT    
