@<TRIPOS>MOLECULE
209_c2
113   120    1
SMALL
USER_CHARGES


@<TRIPOS>ATOM
      1 C1         -2.6394   -2.9331   -0.8719 C.ar      1 UNK         0.0000 
      2 C2         -1.5997   -2.0996   -0.4649 C.ar      1 UNK         0.0000 
      3 C3         -0.3372   -2.6364   -0.2201 C.ar      1 UNK         0.0000 
      4 O4          0.6904   -1.8125    0.1744 O.3       1 UNK         0.0000 
      5 C5         -0.1192   -4.0020   -0.3832 C.ar      1 UNK         0.0000 
      6 O6          1.1257   -4.5231   -0.1417 O.3       1 UNK         0.0000 
      7 C7         -1.1593   -4.8353   -0.7914 C.ar      1 UNK         0.0000 
      8 C8         -2.4407   -4.3165   -1.0171 C.ar      1 UNK         0.0000 
      9 C9         -3.5329   -5.2626   -1.4683 C.2       1 UNK         0.0000 
     10 O10        -3.2451   -6.2885   -2.1082 O.co2     1 UNK         0.0000 
     11 N11        -4.8305   -5.0072   -1.2130 N.am      1 UNK         0.0000 
     12 C12        -5.5040   -4.0931   -0.3052 C.3       1 UNK         0.0000 
     13 C13        -6.9464   -4.5610   -0.0144 C.3       1 UNK         0.0000 
     14 C14        -7.0884   -5.9163    0.7145 C.3       1 UNK         0.0000 
     15 C15        -8.5624   -6.2478    0.9764 C.3       1 UNK         0.0000 
     16 N16        -8.6958   -7.6954    1.4831 N.4       1 UNK         0.0000 
     17 C17       -10.0909   -8.0147    2.0686 C.3       1 UNK         0.0000 
     18 C18       -10.7789   -9.2035    1.3641 C.3       1 UNK         0.0000 
     19 C19       -11.4139   -8.9279   -0.0168 C.3       1 UNK         0.0000 
     20 N20       -10.4280   -8.6005   -1.0339 N.am      1 UNK         0.0000 
     21 C21       -10.4855   -7.5941   -1.9196 C.2       1 UNK         0.0000 
     22 O22       -11.4870   -6.8899   -2.0470 O.2       1 UNK         0.0000 
     23 C23        -9.1783   -7.2734   -2.6032 C.ar      1 UNK         0.0000 
     24 C24        -7.9852   -7.8231   -2.1034 C.ar      1 UNK         0.0000 
     25 C25        -6.7439   -7.3439   -2.4890 C.ar      1 UNK         0.0000 
     26 O26        -5.7466   -7.8348   -1.8703 O.co2     1 UNK         0.0000 
     27 C27        -6.6729   -6.3681   -3.5040 C.ar      1 UNK         0.0000 
     28 O28        -5.5668   -5.9212   -3.9409 O.co2     1 UNK         0.0000 
     29 C29        -7.8495   -5.8950   -4.0927 C.ar      1 UNK         0.0000 
     30 C30        -9.0975   -6.3223   -3.6270 C.ar      1 UNK         0.0000 
     31 H31        -3.5841   -2.4723   -1.1039 H         1 UNK         0.0000 
     32 H32        -1.7784   -1.0441   -0.3583 H         1 UNK         0.0000 
     33 H33         0.4071   -0.9033    0.2559 H         1 UNK         0.0000 
     34 H34         1.7192   -3.7910    0.0429 H         1 UNK         0.0000 
     35 H35        -0.9527   -5.8865   -0.9411 H         1 UNK         0.0000 
     36 H36        -5.4743   -5.6165   -1.7290 H         1 UNK         0.0000 
     37 H37        -4.9283   -4.0370    0.6252 H         1 UNK         0.0000 
     38 H38        -5.5607   -3.1019   -0.7690 H         1 UNK         0.0000 
     39 H39        -7.4914   -4.6040   -0.9659 H         1 UNK         0.0000 
     40 H40        -7.4316   -3.7906    0.5821 H         1 UNK         0.0000 
     41 H41        -6.6609   -6.7140    0.1175 H         1 UNK         0.0000 
     42 H42        -6.5125   -5.9158    1.6417 H         1 UNK         0.0000 
     43 H43        -9.1684   -6.1992    0.0696 H         1 UNK         0.0000 
     44 H44        -8.9788   -5.5842    1.7377 H         1 UNK         0.0000 
     45 H45       -10.7047   -7.1110    2.0520 H         1 UNK         0.0000 
     46 H46        -9.8827   -8.2623    3.1129 H         1 UNK         0.0000 
     47 H47       -11.6018   -9.5066    2.0110 H         1 UNK         0.0000 
     48 H48       -10.1155  -10.0702    1.3222 H         1 UNK         0.0000 
     49 H49       -12.1187   -8.0969    0.0774 H         1 UNK         0.0000 
     50 H50       -11.9917   -9.7894   -0.3611 H         1 UNK         0.0000 
     51 H51        -9.7345   -9.3032   -1.2572 H         1 UNK         0.0000 
     52 H52        -7.9895   -8.5936   -1.3421 H         1 UNK         0.0000 
     53 H53        -7.7876   -5.1649   -4.8910 H         1 UNK         0.0000 
     54 H54        -9.9835   -5.8603   -4.0281 H         1 UNK         0.0000 
     55 O55        -3.0094   -9.2758   -3.0927 O.co2     1 UNK         0.0000 
     56 H56        -4.3353   -7.7619   -6.9868 H         1 UNK         0.0000 
     57 C57        -3.7122  -10.2437   -3.5393 C.ar      1 UNK         0.0000 
     58 H58        -2.4853  -11.6633   -2.4820 H         1 UNK         0.0000 
     59 O59        -2.7989   -6.9001   -4.8093 O.co2     1 UNK         0.0000 
     60 C60        -3.3423  -11.5350   -3.1450 C.ar      1 UNK         0.0000 
     61 H61        -5.0791  -10.3711   -7.6206 H         1 UNK         0.0000 
     62 H62        -3.2229  -15.8703   -4.0246 H         1 UNK         0.0000 
     63 H63        -4.8184  -14.6176   -6.0228 H         1 UNK         0.0000 
     64 H64        -2.9402  -12.8364   -6.1131 H         1 UNK         0.0000 
     65 C65        -0.0423   -6.4230   -4.1768 C.ar      1 UNK         0.0000 
     66 O66         1.7649   -6.1537   -2.6337 O.3       1 UNK         0.0000 
     67 C67        -1.9719   -6.8391   -5.7386 C.2       1 UNK         0.0000 
     68 H68        -3.1154  -14.7900   -8.4818 H         1 UNK         0.0000 
     69 C69        -3.3763   -8.2706   -7.0988 C.3       1 UNK         0.0000 
     70 N70        -3.5310  -14.9677   -4.3565 N.am      1 UNK         0.0000 
     71 H71        -0.6598   -6.7504   -3.3489 H         1 UNK         0.0000 
     72 O72        -5.2370   -8.9580   -4.8362 O.co2     1 UNK         0.0000 
     73 H73        -3.8770   -8.7358   -9.1306 H         1 UNK         0.0000 
     74 C74        -3.7716  -14.8331   -5.8039 C.3       1 UNK         0.0000 
     75 H75        -4.8313  -11.3783   -9.7651 H         1 UNK         0.0000 
     76 C76        -4.0434  -10.5560   -7.9244 C.3       1 UNK         0.0000 
     77 C77        -4.8253  -10.0793   -4.3998 C.ar      1 UNK         0.0000 
     78 C78         1.2845   -6.0768   -3.9154 C.ar      1 UNK         0.0000 
     79 C79        -0.5523   -6.3906   -5.4842 C.ar      1 UNK         0.0000 
     80 N80        -2.2602   -7.3384   -6.9570 N.am      1 UNK         0.0000 
     81 C81        -2.8342  -13.8361   -6.5335 C.3       1 UNK         0.0000 
     82 H82         2.6621   -5.8150   -2.5925 H         1 UNK         0.0000 
     83 C83        -3.3662   -9.2187   -8.2974 C.3       1 UNK         0.0000 
     84 C84        -3.0024  -13.7852   -8.0660 C.3       1 UNK         0.0000 
     85 N85        -4.2644  -13.0014   -8.5083 N.4       1 UNK         0.0000 
     86 C86        -4.0202  -11.5777   -9.0588 C.3       1 UNK         0.0000 
     87 C87        -4.0240  -12.6573   -3.6405 C.ar      1 UNK         0.0000 
     88 C88         2.1173   -5.6682   -4.9567 C.ar      1 UNK         0.0000 
     89 C89        -3.4566  -14.0323   -3.3875 C.2       1 UNK         0.0000 
     90 C90         0.3041   -5.9896   -6.5249 C.ar      1 UNK         0.0000 
     91 C91         1.6254   -5.6279   -6.2611 C.ar      1 UNK         0.0000 
     92 O92         3.4220   -5.3154   -4.7054 O.3       1 UNK         0.0000 
     93 H93        -1.7129   -7.1080   -7.7712 H         1 UNK         0.0000 
     94 C94        -5.5519  -11.1970   -4.8131 C.ar      1 UNK         0.0000 
     95 H95        -3.2415   -8.9284   -6.2411 H         1 UNK         0.0000 
     96 C96        -5.1751  -12.4730   -4.4191 C.ar      1 UNK         0.0000 
     97 H97        -0.0361   -5.9582   -7.5465 H         1 UNK         0.0000 
     98 H98        -3.5412  -10.9628   -7.0445 H         1 UNK         0.0000 
     99 H99        -3.6409  -15.8288   -6.2416 H         1 UNK         0.0000 
    100 H100        3.8961   -5.0968   -5.5061 H         1 UNK         0.0000 
    101 H101       -1.8057  -14.1270   -6.3130 H         1 UNK         0.0000 
    102 H102        2.2614   -5.3218   -7.0714 H         1 UNK         0.0000 
    103 O103       -2.8936  -14.3194   -2.3417 O.2       1 UNK         0.0000 
    104 H104       -2.1470  -13.3159   -8.5543 H         1 UNK         0.0000 
    105 H105       -2.3412   -9.4148   -8.6084 H         1 UNK         0.0000 
    106 H106       -3.0739  -11.5933   -9.6042 H         1 UNK         0.0000 
    107 H107       -6.4183  -11.0739   -5.4494 H         1 UNK         0.0000 
    108 H108       -5.7733  -13.3031   -4.7532 H         1 UNK         0.0000 
    109 Fe109      -4.3381   -7.6437   -3.4647 Fe        1 UNK         0.0000 
    110 H110       -7.9895   -7.8402    2.1941 H         1 UNK         0.0000 
    111 H111       -8.4715   -8.3285    0.7216 H         1 UNK         0.0000 
    112 H112       -4.9395  -12.9562   -7.7522 H         1 UNK         0.0000 
    113 H113       -4.6936  -13.5240   -9.2606 H         1 UNK         0.0000 
@<TRIPOS>BOND
     1    1    2 ar   
     2    1    8 ar   
     3    1   31 1    
     4    2    3 ar   
     5    2   32 1    
     6    3    4 1    
     7    3    5 ar   
     8    4   33 1    
     9    5    6 1    
    10    5    7 ar   
    11    6   34 1    
    12    7    8 ar   
    13    7   35 1    
    14    8    9 1    
    15    9   10 2    
    16    9   11 am   BACKBONE|DICT|INTERRES
    17   10  109 nc   
    18   11   12 1    
    19   11   36 1    
    20   12   13 1    
    21   12   37 1    
    22   12   38 1    
    23   13   14 1    
    24   13   39 1    
    25   13   40 1    
    26   14   15 1    
    27   14   41 1    
    28   14   42 1    
    29   15   16 1    
    30   15   43 1    
    31   15   44 1    
    32   16   17 1    
    33   16  110 1    
    34   16  111 1    
    35   17   18 1    
    36   17   45 1    
    37   17   46 1    
    38   18   19 1    
    39   18   47 1    
    40   18   48 1    
    41   19   20 1    
    42   19   49 1    
    43   19   50 1    
    44   20   21 am   BACKBONE|DICT|INTERRES
    45   20   51 1    
    46   21   22 2    
    47   21   23 1    
    48   23   24 ar   
    49   23   30 ar   
    50   24   25 ar   
    51   24   52 1    
    52   25   26 1    
    53   25   27 ar   
    54   26  109 nc   
    55   27   28 1    
    56   27   29 ar   
    57   28  109 nc   
    58   29   30 ar   
    59   29   53 1    
    60   30   54 1    
    61   55   57 1    
    62   55  109 nc   
    63   56   69 1    
    64   57   77 ar   
    65   57   60 ar   
    66   58   60 1    
    67   59   67 2    
    68   59  109 nc   
    69   60   87 ar   
    70   61   76 1    
    71   62   70 1    
    72   63   74 1    
    73   64   81 1    
    74   65   79 ar   
    75   65   71 1    
    76   65   78 ar   
    77   66   82 1    
    78   66   78 1    
    79   67   80 am   BACKBONE|DICT|INTERRES
    80   67   79 1    
    81   68   84 1    
    82   69   83 1    
    83   69   95 1    
    84   69   80 1    
    85   70   89 am   BACKBONE|DICT|INTERRES
    86   70   74 1    
    87   72   77 1    
    88   72  109 nc   
    89   73   83 1    
    90   74   99 1    
    91   74   81 1    
    92   75   86 1    
    93   76   86 1    
    94   76   98 1    
    95   76   83 1    
    96   77   94 ar   
    97   78   88 ar   
    98   79   90 ar   
    99   80   93 1    
   100   81  101 1    
   101   81   84 1    
   102   83  105 1    
   103   84  104 1    
   104   84   85 1    
   105   85  112 1    
   106   85  113 1    
   107   85   86 1    
   108   86  106 1    
   109   87   96 ar   
   110   87   89 1    
   111   88   92 1    
   112   88   91 ar   
   113   89  103 2    
   114   90   91 ar   
   115   90   97 1    
   116   91  102 1    
   117   92  100 1    
   118   94   96 ar   
   119   94  107 1    
   120   96  108 1    
@<TRIPOS>SUBSTRUCTURE
     1 UNK         1 GROUP             0       ****    0 ROOT    
