@<TRIPOS>MOLECULE
263_A_c1
135   140    1
SMALL
USER_CHARGES


@<TRIPOS>ATOM
      1 Fe1        -1.6907    2.7561   -0.9955 Fe        1 UNK         0.0000 
      2 C2         -4.1951    3.0133   -4.4414 C.3       1 UNK         0.0000 
      3 C3         -3.4696    2.5356   -3.1887 C.2       1 UNK         0.0000 
      4 O4         -2.2642    2.2801   -3.2367 O.co2     1 UNK         0.0000 
      5 N5         -4.0154    2.4467   -1.9503 N.am      1 UNK         0.0000 
      6 O6         -3.3770    1.9971   -0.9644 O.co2     1 UNK         0.0000 
      7 C7         -5.3810    2.4149   -1.5565 C.3       1 UNK         0.0000 
      8 C8         -5.9327    2.5128   -0.0891 C.3       1 UNK         0.0000 
      9 C9         -5.2883    1.9210    1.2015 C.3       1 UNK         0.0000 
     10 C10        -4.9097    2.9710    2.2982 C.3       1 UNK         0.0000 
     11 H11        -5.0276    2.4977    3.2837 H         1 UNK         0.0000 
     12 C12        -3.3819    3.4275    2.3162 C.2       1 UNK         0.0000 
     13 O13        -2.5962    2.9550    1.4468 O.co2     1 UNK         0.0000 
     14 O14        -3.1765    4.3167    3.1681 O.co2     1 UNK         0.0000 
     15 N15        -5.7986    4.1744    2.3202 N.am      1 UNK         0.0000 
     16 C16        -7.1393    4.1479    2.2313 C.2       1 UNK         0.0000 
     17 O17        -7.8058    3.1284    2.3906 O.2       1 UNK         0.0000 
     18 C18        -7.9280    5.4083    1.8411 C.3       1 UNK         0.0000 
     19 H19        -8.9268    5.0707    1.5443 H         1 UNK         0.0000 
     20 C20        -8.1007    6.2831    3.1081 C.3       1 UNK         0.0000 
     21 O21        -6.9394    7.0727    3.3333 O.3       1 UNK         0.0000 
     22 N22        -7.4733    6.3403    0.7827 N.am      1 UNK         0.0000 
     23 C23        -7.4249    6.4311   -0.5671 C.2       1 UNK         0.0000 
     24 O24        -7.5625    7.5461   -1.0657 O.2       1 UNK         0.0000 
     25 C25        -7.0277    5.3136   -1.5851 C.3       1 UNK         0.0000 
     26 H26        -7.3527    5.7002   -2.5522 H         1 UNK         0.0000 
     27 C27        -5.4073    5.4215   -1.7021 C.3       1 UNK         0.0000 
     28 C28        -4.4205    5.3591   -0.4492 C.3       1 UNK         0.0000 
     29 C29        -3.0094    6.0505   -0.4397 C.3       1 UNK         0.0000 
     30 N30        -1.8837    5.3039   -1.0509 N.am      1 UNK         0.0000 
     31 O31        -1.2070    4.4511   -0.2648 O.co2     1 UNK         0.0000 
     32 C32        -1.5958    5.3418   -2.3604 C.2       1 UNK         0.0000 
     33 O33        -0.9729    4.3586   -2.7405 O.co2     1 UNK         0.0000 
     34 C34        -2.0917    6.4559   -3.2811 C.3       1 UNK         0.0000 
     35 N35        -7.9485    4.0935   -1.4762 N.am      1 UNK         0.0000 
     36 C36        -8.4275    2.9089   -2.0353 C.2       1 UNK         0.0000 
     37 O37        -9.3901    2.4475   -1.4339 O.2       1 UNK         0.0000 
     38 C38        -7.9095    1.9773   -3.2452 C.3       1 UNK         0.0000 
     39 H39        -7.1504    2.5109   -3.8076 H         1 UNK         0.0000 
     40 C40        -9.0008    1.7105   -4.3171 C.3       1 UNK         0.0000 
     41 O41       -10.0360    0.8538   -3.8593 O.3       1 UNK         0.0000 
     42 N42        -7.3648    0.6233   -2.8092 N.am      1 UNK         0.0000 
     43 C43        -6.3105   -0.0775   -3.3613 C.2       1 UNK         0.0000 
     44 O44        -5.9750    0.2049   -4.5081 O.2       1 UNK         0.0000 
     45 C45        -5.4580   -1.1985   -2.5634 C.3       1 UNK         0.0000 
     46 H46        -6.1919   -2.0052   -2.6217 H         1 UNK         0.0000 
     47 C47        -4.2307   -1.8615   -3.3168 C.3       1 UNK         0.0000 
     48 C48        -2.8685   -1.1353   -3.5080 C.2       1 UNK         0.0000 
     49 O49        -2.7979   -0.3207   -4.4309 O.2       1 UNK         0.0000 
     50 C50        -1.6350   -1.6647   -2.7062 C.3       1 UNK         0.0000 
     51 H51        -1.9966   -2.4573   -2.0673 H         1 UNK         0.0000 
     52 C52        -0.8488   -0.6501   -1.7749 C.3       1 UNK         0.0000 
     53 H53        -0.1452   -1.2866   -1.2279 H         1 UNK         0.0000 
     54 O54        -0.1065    0.3905   -2.3886 O.co2     1 UNK         0.0000 
     55 C55        -1.6053   -0.1133   -0.5374 C.2       1 UNK         0.0000 
     56 O56        -1.1744    0.9651   -0.0623 O.2       1 UNK         0.0000 
     57 N57        -2.7481   -0.6094    0.0103 N.am      1 UNK         0.0000 
     58 C58        -3.8108   -1.5978   -0.3372 C.3       1 UNK         0.0000 
     59 C59        -5.1673   -1.0887   -0.9911 C.3       1 UNK         0.0000 
     60 N60        -0.6449   -2.3018   -3.6147 N.3       1 UNK         0.0000 
     61 C61         0.1468   -3.3946   -3.0109 C.3       1 UNK         0.0000 
     62 C62         1.5508   -3.5926   -3.6070 C.2       1 UNK         0.0000 
     63 O63         1.9272   -3.0226   -4.6339 O.2       1 UNK         0.0000 
     64 C64         2.4741   -4.5576   -2.8440 C.3       1 UNK         0.0000 
     65 C65         3.8849   -4.6820   -3.4585 C.3       1 UNK         0.0000 
     66 C66         4.7530   -5.7793   -2.8215 C.3       1 UNK         0.0000 
     67 C67         6.1227   -5.8844   -3.5183 C.3       1 UNK         0.0000 
     68 C68         6.9461   -7.1246   -3.1348 C.3       1 UNK         0.0000 
     69 C69         7.4519   -7.1444   -1.6809 C.3       1 UNK         0.0000 
     70 C70         8.3773   -8.3476   -1.4342 C.3       1 UNK         0.0000 
     71 C71         8.9698   -8.4099   -0.0172 C.3       1 UNK         0.0000 
     72 C72         9.9271   -9.6050    0.1346 C.3       1 UNK         0.0000 
     73 C73        10.5693   -9.7088    1.5260 C.3       1 UNK         0.0000 
     74 C74        11.5340  -10.8986    1.6276 C.3       1 UNK         0.0000 
     75 H75        -3.6186    3.8317   -4.8700 H         1 UNK         0.0000 
     76 H76        -4.2545    2.2333   -5.2051 H         1 UNK         0.0000 
     77 H77        -5.1936    3.3917   -4.2747 H         1 UNK         0.0000 
     78 H78        -5.5494    1.4065   -1.7148 H         1 UNK         0.0000 
     79 H79        -5.9078    2.9982   -2.2791 H         1 UNK         0.0000 
     80 H80        -6.9361    2.1060   -0.0874 H         1 UNK         0.0000 
     81 H81        -6.0970    3.5559    0.0330 H         1 UNK         0.0000 
     82 H82        -6.0452    1.2847    1.6542 H         1 UNK         0.0000 
     83 H83        -4.4820    1.2232    1.0346 H         1 UNK         0.0000 
     84 H84        -5.2992    5.0557    2.3129 H         1 UNK         0.0000 
     85 H85        -8.2926    5.6681    3.9914 H         1 UNK         0.0000 
     86 H86        -8.9563    6.9580    3.0053 H         1 UNK         0.0000 
     87 H87        -6.6921    7.0204    4.2637 H         1 UNK         0.0000 
     88 H88        -7.3527    7.2434    1.2349 H         1 UNK         0.0000 
     89 H89        -5.0090    4.8792   -2.5510 H         1 UNK         0.0000 
     90 H90        -5.2548    6.4477   -2.0430 H         1 UNK         0.0000 
     91 H91        -4.1996    4.3432   -0.1711 H         1 UNK         0.0000 
     92 H92        -4.9418    5.7768    0.4079 H         1 UNK         0.0000 
     93 H93        -2.7338    6.1887    0.6095 H         1 UNK         0.0000 
     94 H94        -3.0790    7.0740   -0.8095 H         1 UNK         0.0000 
     95 H95        -1.5162    7.3532   -3.0681 H         1 UNK         0.0000 
     96 H96        -1.9530    6.1994   -4.3337 H         1 UNK         0.0000 
     97 H97        -3.1407    6.6919   -3.1211 H         1 UNK         0.0000 
     98 H98        -8.5295    4.2657   -0.6692 H         1 UNK         0.0000 
     99 H99        -9.4471    2.6508   -4.6452 H         1 UNK         0.0000 
    100 H100       -8.5542    1.2555   -5.2033 H         1 UNK         0.0000 
    101 H101      -10.7479    0.8325   -4.5062 H         1 UNK         0.0000 
    102 H102       -7.7783    0.3075   -1.9456 H         1 UNK         0.0000 
    103 H103       -4.5596   -2.1713   -4.3091 H         1 UNK         0.0000 
    104 H104       -3.9981   -2.7994   -2.8179 H         1 UNK         0.0000 
    105 H105       -2.9955   -0.0451    0.8132 H         1 UNK         0.0000 
    106 H106       -4.1004   -1.9752    0.6451 H         1 UNK         0.0000 
    107 H107       -3.4386   -2.5156   -0.7746 H         1 UNK         0.0000 
    108 H108       -5.9461   -1.6821   -0.5105 H         1 UNK         0.0000 
    109 H109       -5.3743   -0.1250   -0.5626 H         1 UNK         0.0000 
    110 H110       -0.0221   -1.5012   -3.7799 H         1 UNK         0.0000 
    111 H111       -0.4225   -4.3185   -3.0510 H         1 UNK         0.0000 
    112 H112        0.3243   -3.2047   -1.9535 H         1 UNK         0.0000 
    113 H113        2.5533   -4.2292   -1.8064 H         1 UNK         0.0000 
    114 H114        1.9931   -5.5355   -2.8385 H         1 UNK         0.0000 
    115 H115        4.3969   -3.7201   -3.3853 H         1 UNK         0.0000 
    116 H116        3.7887   -4.8869   -4.5270 H         1 UNK         0.0000 
    117 H117        4.8901   -5.5774   -1.7581 H         1 UNK         0.0000 
    118 H118        4.2305   -6.7347   -2.8919 H         1 UNK         0.0000 
    119 H119        6.7034   -4.9799   -3.3282 H         1 UNK         0.0000 
    120 H120        5.9672   -5.9117   -4.5984 H         1 UNK         0.0000 
    121 H121        6.3631   -8.0256   -3.3337 H         1 UNK         0.0000 
    122 H122        7.8059   -7.1766   -3.8052 H         1 UNK         0.0000 
    123 H123        6.6075   -7.1794   -0.9908 H         1 UNK         0.0000 
    124 H124        7.9896   -6.2190   -1.4666 H         1 UNK         0.0000 
    125 H125        9.1954   -8.3186   -2.1565 H         1 UNK         0.0000 
    126 H126        7.8285   -9.2697   -1.6350 H         1 UNK         0.0000 
    127 H127        8.1652   -8.4822    0.7169 H         1 UNK         0.0000 
    128 H128        9.5041   -7.4830    0.1995 H         1 UNK         0.0000 
    129 H129        9.3874  -10.5287   -0.0826 H         1 UNK         0.0000 
    130 H130       10.7152   -9.5300   -0.6171 H         1 UNK         0.0000 
    131 H131       11.1077   -8.7871    1.7535 H         1 UNK         0.0000 
    132 H132        9.7913   -9.8063    2.2851 H         1 UNK         0.0000 
    133 H133       11.0199  -11.8419    1.4386 H         1 UNK         0.0000 
    134 H134       11.9812  -10.9586    2.6199 H         1 UNK         0.0000 
    135 H135       12.3458  -10.8120    0.9041 H         1 UNK         0.0000 
@<TRIPOS>BOND
     1    1    4 nc   
     2    1    6 nc   
     3    1   13 nc   
     4    1   31 nc   
     5    1   33 nc   
     6    1   54 nc   
     7    2   77 1    
     8    2    3 1    
     9    2   75 1    
    10    2   76 1    
    11    3    4 2    
    12    3    5 am   BACKBONE|DICT|INTERRES
    13    5    7 1    
    14    5    6 1    
    15    7   78 1    
    16    7    8 1    
    17    7   79 1    
    18    8   80 1    
    19    8   81 1    
    20    8    9 1    
    21    9   82 1    
    22    9   10 1    
    23    9   83 1    
    24   10   15 1    
    25   10   11 1    
    26   10   12 1    
    27   12   14 2    
    28   12   13 1    
    29   15   84 1    
    30   15   16 am   BACKBONE|DICT|INTERRES
    31   16   17 2    
    32   16   18 1    
    33   18   19 1    
    34   18   20 1    
    35   18   22 1    
    36   20   21 1    
    37   20   85 1    
    38   20   86 1    
    39   21   87 1    
    40   22   88 1    
    41   22   23 am   BACKBONE|DICT|INTERRES
    42   23   24 2    
    43   23   25 1    
    44   25   26 1    
    45   25   35 1    
    46   25   27 1    
    47   27   28 1    
    48   27   89 1    
    49   27   90 1    
    50   28   29 1    
    51   28   91 1    
    52   28   92 1    
    53   29   93 1    
    54   29   30 1    
    55   29   94 1    
    56   30   31 1    
    57   30   32 am   BACKBONE|DICT|INTERRES
    58   32   34 1    
    59   32   33 2    
    60   34   97 1    
    61   34   95 1    
    62   34   96 1    
    63   35   98 1    
    64   35   36 am   BACKBONE|DICT|INTERRES
    65   36   37 2    
    66   36   38 1    
    67   38   39 1    
    68   38   42 1    
    69   38   40 1    
    70   40   41 1    
    71   40   99 1    
    72   40  100 1    
    73   41  101 1    
    74   42  102 1    
    75   42   43 am   BACKBONE|DICT|INTERRES
    76   43   45 1    
    77   43   44 2    
    78   45   46 1    
    79   45   59 1    
    80   45   47 1    
    81   47  104 1    
    82   47   48 1    
    83   47  103 1    
    84   48   50 1    
    85   48   49 2    
    86   50   51 1    
    87   50   52 1    
    88   50   60 1    
    89   52   53 1    
    90   52   55 1    
    91   52   54 1    
    92   55   57 am   BACKBONE|DICT|INTERRES
    93   55   56 2    
    94   57  105 1    
    95   57   58 1    
    96   58  106 1    
    97   58   59 1    
    98   58  107 1    
    99   59  108 1    
   100   59  109 1    
   101   60   61 1    
   102   60  110 1    
   103   61  111 1    
   104   61  112 1    
   105   61   62 1    
   106   62   64 1    
   107   62   63 2    
   108   64  113 1    
   109   64   65 1    
   110   64  114 1    
   111   65  115 1    
   112   65   66 1    
   113   65  116 1    
   114   66  117 1    
   115   66   67 1    
   116   66  118 1    
   117   67  119 1    
   118   67   68 1    
   119   67  120 1    
   120   68   69 1    
   121   68  121 1    
   122   68  122 1    
   123   69  124 1    
   124   69   70 1    
   125   69  123 1    
   126   70   71 1    
   127   70  125 1    
   128   70  126 1    
   129   71   72 1    
   130   71  128 1    
   131   71  127 1    
   132   72   73 1    
   133   72  129 1    
   134   72  130 1    
   135   73   74 1    
   136   73  131 1    
   137   73  132 1    
   138   74  134 1    
   139   74  133 1    
   140   74  135 1    
@<TRIPOS>SUBSTRUCTURE
     1 UNK         1 GROUP             0       ****    0 ROOT    
