@<TRIPOS>MOLECULE
241_c1
107   110    1
SMALL
USER_CHARGES


@<TRIPOS>ATOM
      1 Fe1         0.0165    0.1819   -0.2121 Fe        1 UNK         0.0000 
      2 O2          5.7693   -7.3522    4.0852 O.3       1 UNK         0.0000 
      3 C3          4.9767   -7.4595    2.9765 C.2       1 UNK         0.0000 
      4 O4          4.0191   -8.2057    2.8925 O.2       1 UNK         0.0000 
      5 C5          5.5126   -6.7111    1.7417 C.3       1 UNK         0.0000 
      6 H6          4.8558   -6.9251    0.8870 H         1 UNK         0.0000 
      7 N7          6.7994   -7.4235    1.4144 N.4       1 UNK         0.0000 
      8 H8          6.5846   -8.4031    1.2945 H         1 UNK         0.0000 
      9 H9          7.4764   -7.3150    2.1535 H         1 UNK         0.0000 
     10 H10         7.1516   -7.0552    0.5478 H         1 UNK         0.0000 
     11 C11         5.6758   -5.1759    1.9537 C.3       1 UNK         0.0000 
     12 N12         4.4002   -4.4332    1.8713 N.am      1 UNK         0.0000 
     13 C13         3.7666   -4.1917    0.6967 C.2       1 UNK         0.0000 
     14 O14         4.2185   -4.7080   -0.3300 O.2       1 UNK         0.0000 
     15 C15         2.4334   -3.3781    0.7811 C.3       1 UNK         0.0000 
     16 C16         1.9953   -2.3311   -0.3264 C.3       1 UNK         0.0000 
     17 O17         0.6382   -1.9726   -0.1035 O.co2     1 UNK         0.0000 
     18 C18         2.8727   -1.0109   -0.1165 C.2       1 UNK         0.0000 
     19 O19         2.2395    0.1097    0.0497 O.co2     1 UNK         0.0000 
     20 O20         4.1133   -1.1603    0.0167 O.co2     1 UNK         0.0000 
     21 C21         2.1744   -2.9692   -1.7711 C.3       1 UNK         0.0000 
     22 C22         1.0270   -3.0385   -2.8209 C.2       1 UNK         0.0000 
     23 O23         0.6040   -4.1276   -3.1870 O.2       1 UNK         0.0000 
     24 N24         0.5622   -1.9167   -3.4185 N.am      1 UNK         0.0000 
     25 C25        -0.5045   -1.9107   -4.4358 C.3       1 UNK         0.0000 
     26 C26        -1.4372   -0.6576   -4.4405 C.3       1 UNK         0.0000 
     27 N27        -0.9952    0.4220   -5.3234 N.am      1 UNK         0.0000 
     28 C28        -1.6502    1.5789   -5.5060 C.2       1 UNK         0.0000 
     29 O29        -1.3576    2.2873   -6.4658 O.2       1 UNK         0.0000 
     30 C30        -2.8090    2.0035   -4.5613 C.3       1 UNK         0.0000 
     31 C31        -2.6073    3.2757   -3.6557 C.3       1 UNK         0.0000 
     32 C32        -1.5072    3.4000   -2.5545 C.2       1 UNK         0.0000 
     33 O33        -0.7331    4.3389   -2.7113 O.2       1 UNK         0.0000 
     34 C34        -1.4685    2.6819   -1.1676 C.2       1 UNK         0.0000 
     35 O35        -0.3557    2.3111   -0.6218 O.co2     1 UNK         0.0000 
     36 O36        -2.5611    2.7164   -0.5591 O.co2     1 UNK         0.0000 
     37 H37         6.1592   -4.9303    2.9071 H         1 UNK         0.0000 
     38 H38         6.3355   -4.7628    1.1803 H         1 UNK         0.0000 
     39 H39         4.0641   -3.8936    2.6523 H         1 UNK         0.0000 
     40 H40         2.4101   -2.8968    1.7557 H         1 UNK         0.0000 
     41 H41         1.6611   -4.1399    0.8384 H         1 UNK         0.0000 
     42 H42         2.2941   -4.0413   -1.5940 H         1 UNK         0.0000 
     43 H43         3.0976   -2.6452   -2.2636 H         1 UNK         0.0000 
     44 H44         0.9765   -1.0388   -3.1277 H         1 UNK         0.0000 
     45 H45        -1.1142   -2.8242   -4.4437 H         1 UNK         0.0000 
     46 H46         0.0737   -1.9462   -5.3689 H         1 UNK         0.0000 
     47 H47        -1.4551   -0.2587   -3.4243 H         1 UNK         0.0000 
     48 H48        -2.4763   -0.9490   -4.6288 H         1 UNK         0.0000 
     49 H49        -0.2095    0.2519   -5.9343 H         1 UNK         0.0000 
     50 H50        -3.6476    2.2096   -5.2267 H         1 UNK         0.0000 
     51 H51        -3.1435    1.1627   -3.9446 H         1 UNK         0.0000 
     52 H52        -2.3253    4.0587   -4.3718 H         1 UNK         0.0000 
     53 H53        -3.5584    3.6183   -3.2494 H         1 UNK         0.0000 
     54 O54        -5.6486   -3.7876    7.9205 O.2       1 UNK         0.0000 
     55 C55        -4.9510   -2.8909    7.4569 C.2       1 UNK         0.0000 
     56 O56        -3.6128   -2.7800    7.6530 O.3       1 UNK         0.0000 
     57 C57        -5.5657   -1.6760    6.7169 C.3       1 UNK         0.0000 
     58 H58        -5.0092   -0.7700    6.9573 H         1 UNK         0.0000 
     59 N59        -6.9195   -1.4875    7.3558 N.4       1 UNK         0.0000 
     60 H60        -6.7870   -1.3769    8.3467 H         1 UNK         0.0000 
     61 H61        -7.4634   -2.3284    7.1913 H         1 UNK         0.0000 
     62 H62        -7.3573   -0.6812    6.9533 H         1 UNK         0.0000 
     63 C63        -5.6764   -1.8962    5.1790 C.3       1 UNK         0.0000 
     64 N64        -4.3990   -1.8324    4.4361 N.am      1 UNK         0.0000 
     65 C65        -3.7134   -0.6784    4.2233 C.2       1 UNK         0.0000 
     66 O66        -4.0840    0.3346    4.8119 O.2       1 UNK         0.0000 
     67 C67        -2.4025   -0.7908    3.3794 C.3       1 UNK         0.0000 
     68 C68        -1.9632    0.2867    2.3004 C.3       1 UNK         0.0000 
     69 O69        -0.6156    0.0278    1.9356 O.co2     1 UNK         0.0000 
     70 C70        -2.8395    0.0634    0.9852 C.2       1 UNK         0.0000 
     71 O71        -2.2084   -0.0625   -0.1420 O.co2     1 UNK         0.0000 
     72 O72        -4.0774   -0.0983    1.1464 O.co2     1 UNK         0.0000 
     73 C73        -2.1157    1.7587    2.8808 C.3       1 UNK         0.0000 
     74 C74        -0.9106    2.7384    2.9620 C.2       1 UNK         0.0000 
     75 O75        -0.3312    2.9210    4.0372 O.2       1 UNK         0.0000 
     76 N76        -0.5668    3.4764    1.8909 N.am      1 UNK         0.0000 
     77 C77         0.5005    4.4968    1.8776 C.3       1 UNK         0.0000 
     78 C78         1.4330    4.4774    0.6244 C.3       1 UNK         0.0000 
     79 N79         1.0082    5.3510   -0.4645 N.am      1 UNK         0.0000 
     80 C80         1.6646    5.5153   -1.6236 C.2       1 UNK         0.0000 
     81 O81         1.3754    6.4685   -2.3455 O.2       1 UNK         0.0000 
     82 C82         2.8225    4.5670   -2.0342 C.3       1 UNK         0.0000 
     83 C83         2.6345    3.6589   -3.3076 C.3       1 UNK         0.0000 
     84 C84         1.5312    2.5568   -3.4344 C.2       1 UNK         0.0000 
     85 O85         0.7638    2.7110   -4.3794 O.2       1 UNK         0.0000 
     86 C86         1.4996    1.1801   -2.6981 C.2       1 UNK         0.0000 
     87 O87         0.3786    0.6244   -2.3361 O.co2     1 UNK         0.0000 
     88 O88         2.6005    0.6024   -2.6850 O.co2     1 UNK         0.0000 
     89 H89        -6.1501   -2.8596    4.9521 H         1 UNK         0.0000 
     90 H90        -6.3319   -1.1313    4.7461 H         1 UNK         0.0000 
     91 H91        -4.1154   -2.6059    3.8526 H         1 UNK         0.0000 
     92 H92        -2.3961   -1.7723    2.9155 H         1 UNK         0.0000 
     93 H93        -1.6189   -0.8443    4.1279 H         1 UNK         0.0000 
     94 H94        -2.3296    1.6583    3.9432 H         1 UNK         0.0000 
     95 H95        -2.9780    2.2789    2.4530 H         1 UNK         0.0000 
     96 H96        -1.0446    3.2582    1.0186 H         1 UNK         0.0000 
     97 H97         1.0975    4.5287    2.7978 H         1 UNK         0.0000 
     98 H98        -0.0828    5.4271    1.8914 H         1 UNK         0.0000 
     99 H99         1.4451    3.4589    0.2407 H         1 UNK         0.0000 
    100 H100        2.4740    4.6545    0.9097 H         1 UNK         0.0000 
    101 H101        0.2226    5.9663   -0.3094 H         1 UNK         0.0000 
    102 H102        3.6707    5.2257   -2.2280 H         1 UNK         0.0000 
    103 H103        3.1417    3.9491   -1.1883 H         1 UNK         0.0000 
    104 H104        2.3604    4.3706   -4.0967 H         1 UNK         0.0000 
    105 H105        3.5889    3.2528   -3.6379 H         1 UNK         0.0000 
    106 H106        5.9275   -6.4345    4.3035 H         1 UNK         0.0000 
    107 H107       -3.1623   -2.0282    7.2439 H         1 UNK         0.0000 
@<TRIPOS>BOND
     1    1   17 nc   
     2    1   19 nc   
     3    1   35 nc   
     4    1   69 nc   
     5    1   71 nc   
     6    1   87 nc   
     7    2    3 1    
     8    2  106 1    
     9    3    4 2    
    10    3    5 1    
    11    5    6 1    
    12    5   11 1    
    13    5    7 1    
    14    7    9 1    
    15    7    8 1    
    16    7   10 1    
    17   11   12 1    
    18   11   37 1    
    19   11   38 1    
    20   12   39 1    
    21   12   13 am   BACKBONE|DICT|INTERRES
    22   13   15 1    
    23   13   14 2    
    24   15   41 1    
    25   15   40 1    
    26   15   16 1    
    27   16   17 1    
    28   16   18 1    
    29   16   21 1    
    30   18   19 1    
    31   18   20 2    
    32   21   42 1    
    33   21   22 1    
    34   21   43 1    
    35   22   23 2    
    36   22   24 am   BACKBONE|DICT|INTERRES
    37   24   44 1    
    38   24   25 1    
    39   25   45 1    
    40   25   26 1    
    41   25   46 1    
    42   26   47 1    
    43   26   27 1    
    44   26   48 1    
    45   27   28 am   BACKBONE|DICT|INTERRES
    46   27   49 1    
    47   28   30 1    
    48   28   29 2    
    49   30   51 1    
    50   30   31 1    
    51   30   50 1    
    52   31   53 1    
    53   31   32 1    
    54   31   52 1    
    55   32   33 2    
    56   32   34 1    
    57   34   36 2    
    58   34   35 1    
    59   54   55 2    
    60   55   56 1    
    61   55   57 1    
    62   56  107 1    
    63   57   58 1    
    64   57   59 1    
    65   57   63 1    
    66   59   60 1    
    67   59   61 1    
    68   59   62 1    
    69   63   64 1    
    70   63   89 1    
    71   63   90 1    
    72   64   91 1    
    73   64   65 am   BACKBONE|DICT|INTERRES
    74   65   66 2    
    75   65   67 1    
    76   67   93 1    
    77   67   68 1    
    78   67   92 1    
    79   68   69 1    
    80   68   73 1    
    81   68   70 1    
    82   70   71 1    
    83   70   72 2    
    84   73   95 1    
    85   73   94 1    
    86   73   74 1    
    87   74   75 2    
    88   74   76 am   BACKBONE|DICT|INTERRES
    89   76   77 1    
    90   76   96 1    
    91   77   98 1    
    92   77   97 1    
    93   77   78 1    
    94   78  100 1    
    95   78   79 1    
    96   78   99 1    
    97   79  101 1    
    98   79   80 am   BACKBONE|DICT|INTERRES
    99   80   81 2    
   100   80   82 1    
   101   82  103 1    
   102   82   83 1    
   103   82  102 1    
   104   83   84 1    
   105   83  104 1    
   106   83  105 1    
   107   84   86 1    
   108   84   85 2    
   109   86   88 2    
   110   86   87 1    
@<TRIPOS>SUBSTRUCTURE
     1 UNK         1 GROUP             0       ****    0 ROOT    
