@<TRIPOS>MOLECULE
057_c1
121   126    1
SMALL
USER_CHARGES


@<TRIPOS>ATOM
      1 Fe1         0.6149    3.5636    1.0051 Fe        1 UNK         0.0000 
      2 O2          1.7385    9.4450   -1.3489 O.3       1 UNK         0.0000 
      3 C3          1.9089    8.6967   -2.5402 C.3       1 UNK         0.0000 
      4 C4          1.5466    7.2326   -2.2443 C.3       1 UNK         0.0000 
      5 C5          1.5827    6.1989   -3.3899 C.2       1 UNK         0.0000 
      6 C6          2.1205    6.6932   -4.7182 C.3       1 UNK         0.0000 
      7 C7          1.1947    4.8999   -3.2597 C.2       1 UNK         0.0000 
      8 C8          0.7672    4.2867   -2.0127 C.2       1 UNK         0.0000 
      9 O9          0.7921    4.8406   -0.8981 O.co2     1 UNK         0.0000 
     10 N10         0.5779    2.9418   -1.9386 N.am      1 UNK         0.0000 
     11 O11         0.6694    2.4672   -0.7363 O.co2     1 UNK         0.0000 
     12 C12         0.1564    1.9396   -2.9414 C.3       1 UNK         0.0000 
     13 C13        -0.8826    0.8526   -2.4612 C.3       1 UNK         0.0000 
     14 C14        -0.4084   -0.1803   -1.3750 C.3       1 UNK         0.0000 
     15 C15        -1.3093   -1.4242   -1.1596 C.3       1 UNK         0.0000 
     16 H16        -1.6166   -1.6710   -2.1769 H         1 UNK         0.0000 
     17 C17        -0.5854   -2.7319   -0.7993 C.2       1 UNK         0.0000 
     18 O18         0.6242   -2.7425   -0.5980 O.2       1 UNK         0.0000 
     19 N19        -1.3659   -3.8249   -0.7825 N.am      1 UNK         0.0000 
     20 C20        -0.9370   -5.2304   -0.7643 C.3       1 UNK         0.0000 
     21 H21        -1.7882   -5.7728   -0.3499 H         1 UNK         0.0000 
     22 C22        -0.7963   -5.7324   -2.2288 C.3       1 UNK         0.0000 
     23 O23         0.2286   -5.0796   -2.9594 O.3       1 UNK         0.0000 
     24 C24         0.2501   -5.5850    0.1645 C.2       1 UNK         0.0000 
     25 O25         0.0573   -5.6776    1.3793 O.2       1 UNK         0.0000 
     26 N26         1.4294   -5.8495   -0.4214 N.am      1 UNK         0.0000 
     27 C27         2.6624   -6.3229    0.2081 C.3       1 UNK         0.0000 
     28 H28         3.3482   -6.5390   -0.6118 H         1 UNK         0.0000 
     29 C29         2.4177   -7.6592    0.9650 C.3       1 UNK         0.0000 
     30 O30         3.5820   -8.2249    1.5436 O.3       1 UNK         0.0000 
     31 C31         3.3566   -5.2486    1.0567 C.2       1 UNK         0.0000 
     32 O32         4.3972   -4.7360    0.6450 O.2       1 UNK         0.0000 
     33 N33         2.7966   -4.9745    2.2368 N.am      1 UNK         0.0000 
     34 C34         3.2578   -3.9539    3.1456 C.3       1 UNK         0.0000 
     35 C35         2.0870   -2.9944    3.1897 C.2       1 UNK         0.0000 
     36 O36         1.8642   -2.2558    2.2390 O.2       1 UNK         0.0000 
     37 N37         1.3217   -3.0377    4.2911 N.am      1 UNK         0.0000 
     38 C38         0.0876   -2.2886    4.5023 C.3       1 UNK         0.0000 
     39 H39        -0.3513   -2.7776    5.3674 H         1 UNK         0.0000 
     40 C40         0.3133   -0.8364    5.0412 C.3       1 UNK         0.0000 
     41 C41         1.2629    0.0273    4.1826 C.3       1 UNK         0.0000 
     42 C42         1.3941    1.5550    4.4814 C.3       1 UNK         0.0000 
     43 N43         1.8816    2.3658    3.3283 N.am      1 UNK         0.0000 
     44 O44         1.4694    1.9345    2.1660 O.co2     1 UNK         0.0000 
     45 C45         2.3878    3.6119    3.3262 C.2       1 UNK         0.0000 
     46 O46         2.2775    4.2197    2.2446 O.co2     1 UNK         0.0000 
     47 C47         2.9010    4.3178    4.5684 C.3       1 UNK         0.0000 
     48 C48        -0.9896   -2.5663    3.3956 C.2       1 UNK         0.0000 
     49 O49        -1.7384   -3.5309    3.5685 O.2       1 UNK         0.0000 
     50 N50        -1.0806   -1.8041    2.2920 N.am      1 UNK         0.0000 
     51 C51        -2.2307   -0.9152    2.1083 C.3       1 UNK         0.0000 
     52 H52        -2.9520   -1.2146    2.8732 H         1 UNK         0.0000 
     53 C53        -3.0541   -1.0354    0.7923 C.2       1 UNK         0.0000 
     54 O54        -4.2704   -0.9470    0.9134 O.2       1 UNK         0.0000 
     55 N55        -2.5912   -1.2051   -0.4683 N.am      1 UNK         0.0000 
     56 C56        -1.8659    0.5408    2.4634 C.3       1 UNK         0.0000 
     57 C57        -2.9960    1.6109    2.5127 C.3       1 UNK         0.0000 
     58 C58        -2.5567    2.9858    3.1256 C.3       1 UNK         0.0000 
     59 N59        -1.5965    3.7976    2.3403 N.am      1 UNK         0.0000 
     60 O60        -0.9994    3.1690    1.3393 O.co2     1 UNK         0.0000 
     61 C61        -0.9898    4.9599    2.6829 C.2       1 UNK         0.0000 
     62 O62        -0.0515    5.1792    1.8996 O.co2     1 UNK         0.0000 
     63 C63        -1.2279    5.6502    3.9417 C.2       1 UNK         0.0000 
     64 C64        -0.7049    6.8649    4.2452 C.2       1 UNK         0.0000 
     65 C65         0.0747    7.7303    3.2555 C.3       1 UNK         0.0000 
     66 C66        -0.8974    7.5003    5.6266 C.3       1 UNK         0.0000 
     67 C67         0.3793    7.7308    6.4655 C.3       1 UNK         0.0000 
     68 O68         1.2182    8.7235    5.9090 O.3       1 UNK         0.0000 
     69 H69         1.9256   10.3708   -1.5246 H         1 UNK         0.0000 
     70 H70         1.2708    9.1106   -3.3183 H         1 UNK         0.0000 
     71 H71         2.9404    8.7908   -2.8753 H         1 UNK         0.0000 
     72 H72         0.5439    7.2208   -1.8178 H         1 UNK         0.0000 
     73 H73         2.2080    6.8768   -1.4543 H         1 UNK         0.0000 
     74 H74         2.1630    5.8906   -5.4559 H         1 UNK         0.0000 
     75 H75         3.1370    7.0675   -4.5862 H         1 UNK         0.0000 
     76 H76         1.4849    7.4830   -5.1162 H         1 UNK         0.0000 
     77 H77        -0.2220    2.4337   -3.8322 H         1 UNK         0.0000 
     78 H78         1.0612    1.4193   -3.2618 H         1 UNK         0.0000 
     79 H79        -1.7996    1.3480   -2.1399 H         1 UNK         0.0000 
     80 H80        -1.1470    0.2880   -3.3530 H         1 UNK         0.0000 
     81 H81        -0.2961    0.2794   -0.3961 H         1 UNK         0.0000 
     82 H82         0.5912   -0.5015   -1.6666 H         1 UNK         0.0000 
     83 H83        -2.3505   -3.6827   -0.9366 H         1 UNK         0.0000 
     84 H84        -0.5794   -6.8024   -2.2364 H         1 UNK         0.0000 
     85 H85        -1.7364   -5.6003   -2.7627 H         1 UNK         0.0000 
     86 H86         0.0355   -5.1446   -3.8976 H         1 UNK         0.0000 
     87 H87         1.5166   -5.5674   -1.3926 H         1 UNK         0.0000 
     88 H88         1.7043   -7.5152    1.7752 H         1 UNK         0.0000 
     89 H89         1.9715   -8.3914    0.2939 H         1 UNK         0.0000 
     90 H90         4.2168   -8.4455    0.8577 H         1 UNK         0.0000 
     91 H91         1.8668   -5.3363    2.4128 H         1 UNK         0.0000 
     92 H92         3.4596   -4.3946    4.1191 H         1 UNK         0.0000 
     93 H93         4.1660   -3.4480    2.8122 H         1 UNK         0.0000 
     94 H94         1.5154   -3.7391    4.9862 H         1 UNK         0.0000 
     95 H95         0.7481   -0.9054    6.0374 H         1 UNK         0.0000 
     96 H96        -0.6488   -0.3465    5.1782 H         1 UNK         0.0000 
     97 H97         2.2683   -0.3854    4.2083 H         1 UNK         0.0000 
     98 H98         0.9215   -0.1252    3.1646 H         1 UNK         0.0000 
     99 H99         1.9165    1.7109    5.4306 H         1 UNK         0.0000 
    100 H100        0.3887    1.9368    4.6541 H         1 UNK         0.0000 
    101 H101        3.9400    4.5978    4.4198 H         1 UNK         0.0000 
    102 H102        2.3157    5.2240    4.6962 H         1 UNK         0.0000 
    103 H103        2.8219    3.7281    5.4739 H         1 UNK         0.0000 
    104 H104       -0.8934   -2.3124    1.4380 H         1 UNK         0.0000 
    105 H105       -3.3376   -1.1054   -1.1302 H         1 UNK         0.0000 
    106 H106       -1.0797    0.8141    1.7699 H         1 UNK         0.0000 
    107 H107       -1.4036    0.5525    3.4403 H         1 UNK         0.0000 
    108 H108       -3.7998    1.2216    3.1343 H         1 UNK         0.0000 
    109 H109       -3.4151    1.7733    1.5132 H         1 UNK         0.0000 
    110 H110       -2.1093    2.7739    4.1039 H         1 UNK         0.0000 
    111 H111       -3.4482    3.5846    3.3237 H         1 UNK         0.0000 
    112 H112       -1.8281    5.1117    4.6617 H         1 UNK         0.0000 
    113 H113        0.0508    8.7724    3.5626 H         1 UNK         0.0000 
    114 H114        1.1159    7.4094    3.2120 H         1 UNK         0.0000 
    115 H115       -0.3392    7.6906    2.2450 H         1 UNK         0.0000 
    116 H116       -1.4095    8.4533    5.4974 H         1 UNK         0.0000 
    117 H117       -1.5749    6.8778    6.2068 H         1 UNK         0.0000 
    118 H118        0.0926    8.0695    7.4608 H         1 UNK         0.0000 
    119 H119        0.9397    6.8049    6.5955 H         1 UNK         0.0000 
    120 H120        1.9789    8.8589    6.4798 H         1 UNK         0.0000 
    121 H121        1.2374    4.2358   -4.1116 H         1 UNK         0.0000 
@<TRIPOS>BOND
     1    1    9 nc   
     2    1   11 nc   
     3    1   44 nc   
     4    1   46 nc   
     5    1   60 nc   
     6    1   62 nc   
     7    2    3 1    
     8    2   69 1    
     9    3    4 1    
    10    3   70 1    
    11    3   71 1    
    12    4   72 1    
    13    4   73 1    
    14    4    5 1    
    15    5    7 2    
    16    5    6 1    
    17    6   75 1    
    18    6   74 1    
    19    6   76 1    
    20    7    8 1    
    21    7  121 1    
    22    8   10 am   BACKBONE|DICT|INTERRES
    23    8    9 2    
    24   10   11 1    
    25   10   12 1    
    26   12   13 1    
    27   12   77 1    
    28   12   78 1    
    29   13   79 1    
    30   13   14 1    
    31   13   80 1    
    32   14   15 1    
    33   14   81 1    
    34   14   82 1    
    35   15   16 1    
    36   15   17 1    
    37   15   55 1    
    38   17   18 2    
    39   17   19 am   BACKBONE|DICT|INTERRES
    40   19   20 1    
    41   19   83 1    
    42   20   21 1    
    43   20   24 1    
    44   20   22 1    
    45   22   84 1    
    46   22   23 1    
    47   22   85 1    
    48   23   86 1    
    49   24   25 2    
    50   24   26 am   BACKBONE|DICT|INTERRES
    51   26   27 1    
    52   26   87 1    
    53   27   28 1    
    54   27   29 1    
    55   27   31 1    
    56   29   30 1    
    57   29   88 1    
    58   29   89 1    
    59   30   90 1    
    60   31   33 am   BACKBONE|DICT|INTERRES
    61   31   32 2    
    62   33   91 1    
    63   33   34 1    
    64   34   35 1    
    65   34   92 1    
    66   34   93 1    
    67   35   37 am   BACKBONE|DICT|INTERRES
    68   35   36 2    
    69   37   38 1    
    70   37   94 1    
    71   38   40 1    
    72   38   39 1    
    73   38   48 1    
    74   40   96 1    
    75   40   95 1    
    76   40   41 1    
    77   41   42 1    
    78   41   97 1    
    79   41   98 1    
    80   42  100 1    
    81   42   99 1    
    82   42   43 1    
    83   43   44 1    
    84   43   45 am   BACKBONE|DICT|INTERRES
    85   45   47 1    
    86   45   46 2    
    87   47  102 1    
    88   47  103 1    
    89   47  101 1    
    90   48   49 2    
    91   48   50 am   BACKBONE|DICT|INTERRES
    92   50   51 1    
    93   50  104 1    
    94   51   56 1    
    95   51   52 1    
    96   51   53 1    
    97   53   54 2    
    98   53   55 am   BACKBONE|DICT|INTERRES
    99   55  105 1    
   100   56   57 1    
   101   56  107 1    
   102   56  106 1    
   103   57  108 1    
   104   57   58 1    
   105   57  109 1    
   106   58  110 1    
   107   58   59 1    
   108   58  111 1    
   109   59   61 am   BACKBONE|DICT|INTERRES
   110   59   60 1    
   111   61   63 1    
   112   61   62 2    
   113   63   64 2    
   114   63  112 1    
   115   64   66 1    
   116   64   65 1    
   117   65  113 1    
   118   65  114 1    
   119   65  115 1    
   120   66  117 1    
   121   66   67 1    
   122   66  116 1    
   123   67  119 1    
   124   67  118 1    
   125   67   68 1    
   126   68  120 1    
@<TRIPOS>SUBSTRUCTURE
     1 UNK         1 GROUP             0       ****    0 ROOT    
