@<TRIPOS>MOLECULE
248_A_c1
77   86    1
SMALL
USER_CHARGES


@<TRIPOS>ATOM
      1 O1          2.9183   -0.3547    3.2036 O.co2     1 UNK         0.0000 
      2 C2          3.3170   -0.0234    2.0309 C.2       1 UNK         0.0000 
      3 O3          4.2973    0.7496    1.8516 O.co2     1 UNK         0.0000 
      4 C4          2.4973   -0.5150    0.7362 C.3       1 UNK         0.0000 
      5 C5          1.8550    0.7780    0.1277 C.3       1 UNK         0.0000 
      6 N6          1.5527   -1.5809    1.1590 N.3       1 UNK         0.0000 
      7 C7          0.2783   -1.7292    0.4402 C.3       1 UNK         0.0000 
      8 C8          2.3962   -2.7923    1.3380 C.3       1 UNK         0.0000 
      9 H9          3.3046   -2.4630    1.8399 H         1 UNK         0.0000 
     10 S10         3.2694   -3.0552   -0.1851 S.3       1 UNK         0.0000 
     11 C11         3.3361   -1.2347   -0.4009 C.3       1 UNK         0.0000 
     12 C12         2.0717   -3.9089    2.3943 C.3       1 UNK         0.0000 
     13 H13         3.0085   -4.2357    2.8523 H         1 UNK         0.0000 
     14 N14         1.2971   -3.2470    3.4117 N.pl3     1 UNK         0.0000 
     15 C15         0.0382   -3.4156    3.2043 C.2       1 UNK         0.0000 
     16 S16        -0.3535   -4.6930    1.9683 S.3       1 UNK         0.0000 
     17 C17         1.3615   -5.1688    1.9352 C.3       1 UNK         0.0000 
     18 C18        -1.0532   -2.6139    3.8451 C.ar      1 UNK         0.0000 
     19 C19        -0.8251   -1.4684    4.6677 C.ar      1 UNK         0.0000 
     20 O20         0.3192   -0.9400    4.8614 O.co2     1 UNK         0.0000 
     21 C21        -1.9150   -0.8109    5.2631 C.ar      1 UNK         0.0000 
     22 C22        -3.2311   -1.1854    4.9753 C.ar      1 UNK         0.0000 
     23 C23        -3.4622   -2.2199    4.0776 C.ar      1 UNK         0.0000 
     24 C24        -2.3954   -2.9239    3.5379 C.ar      1 UNK         0.0000 
     25 H25         1.2832    0.5965   -0.7740 H         1 UNK         0.0000 
     26 H26         2.6422    1.4776   -0.1624 H         1 UNK         0.0000 
     27 H27         1.2153    1.3043    0.8356 H         1 UNK         0.0000 
     28 H28        -0.0194   -0.8635   -0.1372 H         1 UNK         0.0000 
     29 H29        -0.5216   -1.8635    1.1577 H         1 UNK         0.0000 
     30 H30         0.2507   -2.5822   -0.2352 H         1 UNK         0.0000 
     31 H31         2.8107   -1.0959   -1.3400 H         1 UNK         0.0000 
     32 H32         4.3561   -0.8657   -0.5252 H         1 UNK         0.0000 
     33 H33         1.7190   -5.5359    0.9731 H         1 UNK         0.0000 
     34 H34         1.4834   -5.9607    2.6788 H         1 UNK         0.0000 
     35 H35        -1.7508    0.0064    5.9545 H         1 UNK         0.0000 
     36 H36        -4.0665   -0.6509    5.4214 H         1 UNK         0.0000 
     37 H37        -4.4659   -2.4948    3.7760 H         1 UNK         0.0000 
     38 H38        -2.6162   -3.7247    2.8375 H         1 UNK         0.0000 
     39 S39         3.2957    0.8424    8.5601 S.3       1 UNK         0.0000 
     40 H40         2.8112    2.4133    6.8888 H         1 UNK         0.0000 
     41 C41         3.6680    1.7632    7.0831 C.3       1 UNK         0.0000 
     42 H42         4.5658    2.3785    7.1423 H         1 UNK         0.0000 
     43 O43         1.7980   -3.0649    6.2476 O.co2     1 UNK         0.0000 
     44 C44         2.5877   -0.4872    7.5388 C.2       1 UNK         0.0000 
     45 C45         3.7569    0.6803    6.0229 C.3       1 UNK         0.0000 
     46 C46         1.5252   -2.8409    7.4729 C.ar      1 UNK         0.0000 
     47 S47         6.6952    0.6823    5.6064 S.3       1 UNK         0.0000 
     48 H48         3.4990    1.1550    5.0728 H         1 UNK         0.0000 
     49 H49         4.9855   -0.2389    4.7719 H         1 UNK         0.0000 
     50 C50         1.9144   -1.6625    8.1795 C.ar      1 UNK         0.0000 
     51 C51         5.1149   -0.0887    5.8429 C.3       1 UNK         0.0000 
     52 N52         2.7759   -0.3426    6.2737 N.pl3     1 UNK         0.0000 
     53 H53         0.4876   -4.7362    7.6141 H         1 UNK         0.0000 
     54 C54         0.8618   -3.8751    8.1541 C.ar      1 UNK         0.0000 
     55 O55         6.0741   -3.0102    3.1945 O.co2     1 UNK         0.0000 
     56 H56         7.8519   -1.0028    4.2283 H         1 UNK         0.0000 
     57 C57         7.3843   -0.9716    5.2139 C.3       1 UNK         0.0000 
     58 C58         1.7597   -1.6785    9.5827 C.ar      1 UNK         0.0000 
     59 C59         5.4549   -2.5802    4.1899 C.2       1 UNK         0.0000 
     60 N60         5.3662   -1.4367    6.4191 N.3       1 UNK         0.0000 
     61 C61         0.6798   -3.8280    9.5397 C.ar      1 UNK         0.0000 
     62 H62         8.1633   -1.0789    5.9617 H         1 UNK         0.0000 
     63 C63         6.2961   -2.0978    5.4720 C.3       1 UNK         0.0000 
     64 H64         2.1341   -0.8482   10.1751 H         1 UNK         0.0000 
     65 C65         1.1699   -2.7411   10.2524 C.ar      1 UNK         0.0000 
     66 O66         4.1599   -2.5873    4.2501 O.co2     1 UNK         0.0000 
     67 H67         4.6795   -1.8955    8.3332 H         1 UNK         0.0000 
     68 C68         5.5988   -1.5632    7.8649 C.3       1 UNK         0.0000 
     69 H69         0.1918   -4.6492   10.0595 H         1 UNK         0.0000 
     70 H70         5.8906   -0.6336    8.3492 H         1 UNK         0.0000 
     71 H71         1.1126   -2.7009   11.3337 H         1 UNK         0.0000 
     72 C72         7.0366   -3.3764    5.9974 C.3       1 UNK         0.0000 
     73 H73         6.3346   -2.3052    8.1483 H         1 UNK         0.0000 
     74 H74         7.7009   -3.7622    5.2208 H         1 UNK         0.0000 
     75 H75         7.6716   -3.1873    6.8545 H         1 UNK         0.0000 
     76 H76         6.3513   -4.1843    6.2531 H         1 UNK         0.0000 
     77 Fe77        2.2000   -1.7591    4.7179 Fe        1 UNK         0.0000 
@<TRIPOS>BOND
     1    1    2 1    
     2    1   77 nc   
     3    2    3 2    
     4    2    4 1    
     5    4    6 1    
     6    4   11 1    
     7    4    5 1    
     8    5   25 1    
     9    5   26 1    
    10    5   27 1    
    11    6    7 1    
    12    6    8 1    
    13    7   28 1    
    14    7   29 1    
    15    7   30 1    
    16    8   10 1    
    17    8   12 1    
    18    8    9 1    
    19   10   11 1    
    20   11   31 1    
    21   11   32 1    
    22   12   13 1    
    23   12   14 1    
    24   12   17 1    
    25   14   15 2    
    26   14   77 nc   
    27   15   16 1    
    28   15   18 1    
    29   16   17 1    
    30   17   33 1    
    31   17   34 1    
    32   18   19 ar   
    33   18   24 ar   
    34   19   20 1    
    35   19   21 ar   
    36   20   77 nc   
    37   21   22 ar   
    38   21   35 1    
    39   22   23 ar   
    40   22   36 1    
    41   23   24 ar   
    42   23   37 1    
    43   24   38 1    
    44   39   41 1    
    45   39   44 1    
    46   40   41 1    
    47   41   42 1    
    48   41   45 1    
    49   43   46 1    
    50   43   77 nc   
    51   44   50 1    
    52   44   52 2    
    53   45   48 1    
    54   45   52 1    
    55   45   51 1    
    56   46   54 ar   
    57   46   50 ar   
    58   47   57 1    
    59   47   51 1    
    60   49   51 1    
    61   50   58 ar   
    62   51   60 1    
    63   52   77 nc   
    64   53   54 1    
    65   54   61 ar   
    66   55   59 2    
    67   56   57 1    
    68   57   62 1    
    69   57   63 1    
    70   58   64 1    
    71   58   65 ar   
    72   59   63 1    
    73   59   66 1    
    74   60   68 1    
    75   60   63 1    
    76   61   65 ar   
    77   61   69 1    
    78   63   72 1    
    79   65   71 1    
    80   66   77 nc   
    81   67   68 1    
    82   68   73 1    
    83   68   70 1    
    84   72   75 1    
    85   72   74 1    
    86   72   76 1    
@<TRIPOS>SUBSTRUCTURE
     1 UNK         1 GROUP             0       ****    0 ROOT    
