@<TRIPOS>MOLECULE
179_A2_c1
84   90    1
SMALL
USER_CHARGES


@<TRIPOS>ATOM
      1 Fe1         0.4631    0.0610    1.0393 Fe        1 UNK         0.0000 
      2 O2         -1.3864    0.5308    1.9575 O.co2     1 UNK         0.0000 
      3 N3         -1.4871    1.7868    2.3986 N.am      1 UNK         0.0000 
      4 C4         -2.8315    2.3635    2.6815 C.3       1 UNK         0.0000 
      5 C5         -2.8332    3.9071    2.6414 C.3       1 UNK         0.0000 
      6 C6         -1.5385    4.4905    3.2277 C.3       1 UNK         0.0000 
      7 C7         -0.3018    3.9690    2.4717 C.3       1 UNK         0.0000 
      8 H8          0.5742    4.1042    3.1047 H         1 UNK         0.0000 
      9 C9         -0.2909    2.4263    2.3726 C.2       1 UNK         0.0000 
     10 O10         0.6744    1.7548    2.0023 O.co2     1 UNK         0.0000 
     11 N11         0.0604    4.6289    1.1842 N.am      1 UNK         0.0000 
     12 C12        -0.5388    4.3523   -0.0064 C.2       1 UNK         0.0000 
     13 O13        -1.4726    3.5747   -0.0937 O.2       1 UNK         0.0000 
     14 C14        -0.0877    4.9435   -1.3638 C.3       1 UNK         0.0000 
     15 H15        -0.9548    5.4978   -1.7185 H         1 UNK         0.0000 
     16 N16         0.9627    6.0043   -1.1706 N.4       1 UNK         0.0000 
     17 H17         0.6446    6.6327   -0.4405 H         1 UNK         0.0000 
     18 H18         1.8042    5.5239   -0.8811 H         1 UNK         0.0000 
     19 C19         1.2396    6.7919   -2.4730 C.3       1 UNK         0.0000 
     20 C20         0.2648    3.8394   -2.3967 C.3       1 UNK         0.0000 
     21 C21         1.6468    3.1872   -2.1814 C.3       1 UNK         0.0000 
     22 C22         1.6901    1.7276   -2.7076 C.3       1 UNK         0.0000 
     23 N23         1.1062    0.8055   -1.7265 N.am      1 UNK         0.0000 
     24 O24         1.7096    0.8003   -0.5408 O.co2     1 UNK         0.0000 
     25 C25        -0.0570    0.1134   -1.8341 C.2       1 UNK         0.0000 
     26 O26        -0.4021   -0.3949   -0.7746 O.co2     1 UNK         0.0000 
     27 C27        -0.9371    0.0651   -3.0919 C.3       1 UNK         0.0000 
     28 C28        -2.1001   -0.9761   -3.0103 C.3       1 UNK         0.0000 
     29 N29        -1.6951   -2.3663   -2.7495 N.am      1 UNK         0.0000 
     30 C30        -0.9839   -3.0806   -3.6375 C.2       1 UNK         0.0000 
     31 O31        -0.5886   -2.6039   -4.6974 O.2       1 UNK         0.0000 
     32 C32        -0.6536   -4.5416   -3.2904 C.3       1 UNK         0.0000 
     33 H33        -1.6040   -5.0762   -3.3502 H         1 UNK         0.0000 
     34 C34         0.3338   -5.1704   -4.2887 C.3       1 UNK         0.0000 
     35 N35        -0.0968   -4.6299   -1.9413 N.am      1 UNK         0.0000 
     36 C36        -0.5949   -5.4186   -0.9701 C.2       1 UNK         0.0000 
     37 O37        -1.5365   -6.1881   -1.1662 O.2       1 UNK         0.0000 
     38 C38        -0.0003   -5.2394    0.4525 C.3       1 UNK         0.0000 
     39 H39         1.0420   -5.5332    0.4423 H         1 UNK         0.0000 
     40 C40        -0.6970   -6.1313    1.5122 C.3       1 UNK         0.0000 
     41 O41        -0.1594   -5.9244    2.8154 O.3       1 UNK         0.0000 
     42 N42        -0.2096   -3.8570    0.8360 N.am      1 UNK         0.0000 
     43 C43         0.5487   -2.7932    1.0792 C.2       1 UNK         0.0000 
     44 O44        -0.0760   -1.7703    1.3400 O.co2     1 UNK         0.0000 
     45 C45         2.0612   -2.6580    0.9716 C.ar      1 UNK         0.0000 
     46 C46         2.6747   -1.4816    1.4994 C.ar      1 UNK         0.0000 
     47 O47         2.0284   -0.5455    2.0691 O.co2     1 UNK         0.0000 
     48 C48         4.0379   -1.2733    1.3609 C.ar      1 UNK         0.0000 
     49 C49         4.8418   -2.2024    0.7161 C.ar      1 UNK         0.0000 
     50 C50         4.2643   -3.3450    0.1613 C.ar      1 UNK         0.0000 
     51 C51         2.8849   -3.5635    0.2703 C.ar      1 UNK         0.0000 
     52 H52        -3.5688    1.9635    1.9802 H         1 UNK         0.0000 
     53 H53        -3.1363    2.0140    3.6624 H         1 UNK         0.0000 
     54 H54        -3.7034    4.3058    3.1627 H         1 UNK         0.0000 
     55 H55        -2.9848    4.2537    1.6172 H         1 UNK         0.0000 
     56 H56        -1.5567    5.5803    3.1907 H         1 UNK         0.0000 
     57 H57        -1.4606    4.2232    4.2888 H         1 UNK         0.0000 
     58 H58         0.9646    5.0658    1.2351 H         1 UNK         0.0000 
     59 H59         0.2965    7.2328   -2.8002 H         1 UNK         0.0000 
     60 H60         1.9858    7.5581   -2.2545 H         1 UNK         0.0000 
     61 H61         1.6134    6.0895   -3.2197 H         1 UNK         0.0000 
     62 H62         0.1728    4.2310   -3.4140 H         1 UNK         0.0000 
     63 H63        -0.5012    3.0584   -2.3759 H         1 UNK         0.0000 
     64 H64         1.9171    3.2349   -1.1203 H         1 UNK         0.0000 
     65 H65         2.4243    3.7688   -2.6777 H         1 UNK         0.0000 
     66 H66         1.1928    1.6585   -3.6780 H         1 UNK         0.0000 
     67 H67         2.7302    1.4379   -2.8997 H         1 UNK         0.0000 
     68 H68        -1.3128    1.0511   -3.3531 H         1 UNK         0.0000 
     69 H69        -0.2645   -0.2254   -3.8981 H         1 UNK         0.0000 
     70 H70        -2.7337   -0.7007   -2.1678 H         1 UNK         0.0000 
     71 H71        -2.7800   -0.9157   -3.8681 H         1 UNK         0.0000 
     72 H72        -2.0179   -2.8294   -1.9085 H         1 UNK         0.0000 
     73 H73         1.2805   -4.6238   -4.3203 H         1 UNK         0.0000 
     74 H74         0.5356   -6.2147   -4.0432 H         1 UNK         0.0000 
     75 H75        -0.0952   -5.1415   -5.2917 H         1 UNK         0.0000 
     76 H76         0.6819   -4.0108   -1.7596 H         1 UNK         0.0000 
     77 H77        -0.5606   -7.1799    1.2479 H         1 UNK         0.0000 
     78 H78        -1.7788   -5.9431    1.5529 H         1 UNK         0.0000 
     79 H79         0.7360   -6.2740    2.8569 H         1 UNK         0.0000 
     80 H80        -1.1876   -3.6753    0.9946 H         1 UNK         0.0000 
     81 H81         4.4979   -0.3804    1.7476 H         1 UNK         0.0000 
     82 H82         5.9094   -2.0471    0.6465 H         1 UNK         0.0000 
     83 H83         4.8843   -4.0715   -0.3394 H         1 UNK         0.0000 
     84 H84         2.4971   -4.4222   -0.2638 H         1 UNK         0.0000 
@<TRIPOS>BOND
     1    1    2 nc   
     2    1   10 nc   
     3    1   24 nc   
     4    1   26 nc   
     5    1   44 nc   
     6    1   47 nc   
     7    2    3 1    
     8    3    4 1    
     9    3    9 am   BACKBONE|DICT|INTERRES
    10    4   53 1    
    11    4    5 1    
    12    4   52 1    
    13    5   54 1    
    14    5    6 1    
    15    5   55 1    
    16    6   57 1    
    17    6    7 1    
    18    6   56 1    
    19    7    8 1    
    20    7    9 1    
    21    7   11 1    
    22    9   10 2    
    23   11   58 1    
    24   11   12 am   BACKBONE|DICT|INTERRES
    25   12   13 2    
    26   12   14 1    
    27   14   15 1    
    28   14   16 1    
    29   14   20 1    
    30   16   18 1    
    31   16   17 1    
    32   16   19 1    
    33   19   60 1    
    34   19   59 1    
    35   19   61 1    
    36   20   63 1    
    37   20   21 1    
    38   20   62 1    
    39   21   64 1    
    40   21   22 1    
    41   21   65 1    
    42   22   23 1    
    43   22   66 1    
    44   22   67 1    
    45   23   24 1    
    46   23   25 am   BACKBONE|DICT|INTERRES
    47   25   26 2    
    48   25   27 1    
    49   27   28 1    
    50   27   68 1    
    51   27   69 1    
    52   28   29 1    
    53   28   70 1    
    54   28   71 1    
    55   29   72 1    
    56   29   30 am   BACKBONE|DICT|INTERRES
    57   30   32 1    
    58   30   31 2    
    59   32   33 1    
    60   32   35 1    
    61   32   34 1    
    62   34   74 1    
    63   34   73 1    
    64   34   75 1    
    65   35   76 1    
    66   35   36 am   BACKBONE|DICT|INTERRES
    67   36   38 1    
    68   36   37 2    
    69   38   39 1    
    70   38   42 1    
    71   38   40 1    
    72   40   78 1    
    73   40   41 1    
    74   40   77 1    
    75   41   79 1    
    76   42   80 1    
    77   42   43 am   BACKBONE|DICT|INTERRES
    78   43   45 1    
    79   43   44 2    
    80   45   46 ar   
    81   45   51 ar   
    82   46   47 1    
    83   46   48 ar   
    84   48   81 1    
    85   48   49 ar   
    86   49   50 ar   
    87   49   82 1    
    88   50   51 ar   
    89   50   83 1    
    90   51   84 1    
@<TRIPOS>SUBSTRUCTURE
     1 UNK         1 GROUP             0       ****    0 ROOT    
