@<TRIPOS>MOLECULE
249_c1
47   54    1
SMALL
USER_CHARGES


@<TRIPOS>ATOM
      1 O1         -3.5799    0.4915    3.6089 O.co2     1 UNK         0.0000 
      2 C2         -2.3151    0.5841    3.4144 C.ar      1 UNK         0.0000 
      3 C3         -1.4675    1.2212    4.3202 C.ar      1 UNK         0.0000 
      4 C4         -0.0975    1.3069    4.0612 C.ar      1 UNK         0.0000 
      5 C5          0.4606    0.7529    2.8985 C.ar      1 UNK         0.0000 
      6 C6         -0.3653    0.0633    1.9626 C.ar      1 UNK         0.0000 
      7 C7         -1.7325   -0.0048    2.2674 C.ar      1 UNK         0.0000 
      8 C8          0.0561   -0.5663    0.7378 C.ar      1 UNK         0.0000 
      9 O9          1.3919   -0.4289    0.4176 O.3       1 UNK         0.0000 
     10 C10         1.8937   -1.0628   -0.7441 C.3       1 UNK         0.0000 
     11 C11        -0.8963   -1.2775   -0.0526 C.ar      1 UNK         0.0000 
     12 C12        -2.2134   -1.3909    0.4041 C.ar      1 UNK         0.0000 
     13 N13        -2.5586   -0.7091    1.5046 N.pl3     1 UNK         0.0000 
     14 C14        -3.3644   -2.1949   -0.1670 C.2       1 UNK         0.0000 
     15 S15        -3.2169   -3.0056   -1.6962 S.3       1 UNK         0.0000 
     16 O16        -4.3528   -2.2004    0.5699 O.co2     1 UNK         0.0000 
     17 H17        -1.8749    1.6506    5.2247 H         1 UNK         0.0000 
     18 H18         0.5324    1.8404    4.7571 H         1 UNK         0.0000 
     19 H19         1.5150    0.8480    2.6845 H         1 UNK         0.0000 
     20 H20         2.9598   -0.8480   -0.8010 H         1 UNK         0.0000 
     21 H21         1.4237   -0.6780   -1.6464 H         1 UNK         0.0000 
     22 H22         1.7697   -2.1428   -0.6960 H         1 UNK         0.0000 
     23 H23        -0.6249   -1.7164   -1.0034 H         1 UNK         0.0000 
     24 H24        -9.6328    0.9558   -0.1809 H         1 UNK         0.0000 
     25 C25        -8.8919    0.5318    0.4793 C.ar      1 UNK         0.0000 
     26 C26        -9.2958   -0.1135    1.6588 C.ar      1 UNK         0.0000 
     27 H27       -10.3393   -0.1988    1.9201 H         1 UNK         0.0000 
     28 H28        -9.8959   -3.1003    5.4168 H         1 UNK         0.0000 
     29 C29        -7.5406    0.6817    0.1592 C.ar      1 UNK         0.0000 
     30 H30        -7.2512    1.1864   -0.7524 H         1 UNK         0.0000 
     31 H31       -11.2915   -2.0299    5.5318 H         1 UNK         0.0000 
     32 O32        -9.8940   -1.4218    4.1872 O.3       1 UNK         0.0000 
     33 C33       -10.2096   -2.0583    5.4117 C.3       1 UNK         0.0000 
     34 C34        -8.3244   -0.6563    2.5504 C.ar      1 UNK         0.0000 
     35 C35        -8.5728   -1.3367    3.7961 C.ar      1 UNK         0.0000 
     36 C36        -6.5588    0.1862    1.0152 C.ar      1 UNK         0.0000 
     37 C37        -6.9821   -0.5012    2.1769 C.ar      1 UNK         0.0000 
     38 O38        -5.3049    0.3161    0.7717 O.co2     1 UNK         0.0000 
     39 C39        -7.4773   -1.8691    4.5394 C.ar      1 UNK         0.0000 
     40 N40        -6.0154   -1.0580    2.8922 N.pl3     1 UNK         0.0000 
     41 C41        -6.1821   -1.7677    4.0158 C.ar      1 UNK         0.0000 
     42 H42        -7.6244   -2.3345    5.5046 H         1 UNK         0.0000 
     43 H43        -9.7630   -1.5370    6.2557 H         1 UNK         0.0000 
     44 C44        -4.8885   -2.3432    4.5484 C.2       1 UNK         0.0000 
     45 O45        -3.9351   -2.1731    3.7721 O.co2     1 UNK         0.0000 
     46 S46        -4.8269   -3.1506    6.0816 S.3       1 UNK         0.0000 
     47 Fe47       -4.2968   -0.8517    2.1831 Fe        1 UNK         0.0000 
@<TRIPOS>BOND
     1    1    2 1    
     2    1   47 nc   
     3    2    3 ar   
     4    2    7 ar   
     5    3    4 ar   
     6    3   17 1    
     7    4    5 ar   
     8    4   18 1    
     9    5    6 ar   
    10    5   19 1    
    11    6    7 ar   
    12    6    8 ar   
    13    7   13 ar   
    14    8    9 1    
    15    8   11 ar   
    16    9   10 1    
    17   10   20 1    
    18   10   21 1    
    19   10   22 1    
    20   11   12 ar   
    21   11   23 1    
    22   12   13 ar   
    23   12   14 1    
    24   13   47 nc   
    25   14   15 1    
    26   14   16 2    
    27   16   47 nc   
    28   24   25 1    
    29   25   26 ar   
    30   25   29 ar   
    31   26   34 ar   
    32   26   27 1    
    33   28   33 1    
    34   29   30 1    
    35   29   36 ar   
    36   31   33 1    
    37   32   33 1    
    38   32   35 1    
    39   33   43 1    
    40   34   37 ar   
    41   34   35 ar   
    42   35   39 ar   
    43   36   37 ar   
    44   36   38 1    
    45   37   40 ar   
    46   38   47 nc   
    47   39   41 ar   
    48   39   42 1    
    49   40   41 ar   
    50   40   47 nc   
    51   41   44 1    
    52   44   46 1    
    53   44   45 2    
    54   45   47 nc   
@<TRIPOS>SUBSTRUCTURE
     1 UNK         1 GROUP             0       ****    0 ROOT    
