@<TRIPOS>MOLECULE
104_c4
115   120    1
SMALL
USER_CHARGES


@<TRIPOS>ATOM
      1 Fe1        -0.2289    2.2530   -0.2391 Fe        1 UNK         0.0000 
      2 O2         -0.5014   -8.9402    0.2466 O.3       1 UNK         0.0000 
      3 N3          0.8205   -8.5351   -0.0486 N.am      1 UNK         0.0000 
      4 C4          1.5768   -7.9720    1.0811 C.3       1 UNK         0.0000 
      5 C5          0.9754   -6.7008    1.7196 C.3       1 UNK         0.0000 
      6 C6          1.8502   -6.1990    2.8958 C.3       1 UNK         0.0000 
      7 C7          1.2812   -5.0308    3.7158 C.3       1 UNK         0.0000 
      8 N8          1.1813   -3.7984    2.9391 N.am      1 UNK         0.0000 
      9 C9          1.9251   -2.7024    3.1189 C.2       1 UNK         0.0000 
     10 O10         2.8587   -2.6282    3.9107 O.2       1 UNK         0.0000 
     11 C11         1.5292   -1.4883    2.2778 C.3       1 UNK         0.0000 
     12 C12         0.9017   -0.3421    3.1225 C.3       1 UNK         0.0000 
     13 C13         0.2539    0.6909    2.1908 C.2       1 UNK         0.0000 
     14 O14         0.5255    0.7690    0.9881 O.co2     1 UNK         0.0000 
     15 N15        -0.6349    1.6459    2.5459 N.am      1 UNK         0.0000 
     16 O16        -1.0936    2.3698    1.5280 O.co2     1 UNK         0.0000 
     17 C17        -0.7422    2.2596    3.8877 C.3       1 UNK         0.0000 
     18 C18        -0.1638    3.7008    3.9192 C.3       1 UNK         0.0000 
     19 C19        -0.6514    4.6000    5.0751 C.3       1 UNK         0.0000 
     20 C20        -0.0124    6.0150    5.1153 C.3       1 UNK         0.0000 
     21 C21        -0.1810    6.8918    3.8531 C.3       1 UNK         0.0000 
     22 N22         0.7712    6.5770    2.7859 N.am      1 UNK         0.0000 
     23 C23         0.8529    7.2521    1.6331 C.2       1 UNK         0.0000 
     24 O24         0.1642    8.2310    1.3697 O.2       1 UNK         0.0000 
     25 C25         1.8408    6.7176    0.5833 C.3       1 UNK         0.0000 
     26 C26         1.1720    6.2963   -0.7541 C.3       1 UNK         0.0000 
     27 C27         0.3500    5.0013   -0.6727 C.2       1 UNK         0.0000 
     28 O28         0.7427    4.0746    0.0429 O.co2     1 UNK         0.0000 
     29 N29        -0.7803    4.7053   -1.3722 N.am      1 UNK         0.0000 
     30 O30        -1.3775    3.5401   -1.1147 O.co2     1 UNK         0.0000 
     31 C31        -1.4730    5.4761   -2.4329 C.3       1 UNK         0.0000 
     32 C32        -0.6500    6.4001   -3.3687 C.3       1 UNK         0.0000 
     33 C33        -1.3090    6.5960   -4.7547 C.3       1 UNK         0.0000 
     34 C34        -0.8480    5.6258   -5.8735 C.3       1 UNK         0.0000 
     35 C35        -0.9639    4.1039   -5.6138 C.3       1 UNK         0.0000 
     36 N36         0.1106    3.5471   -4.7840 N.am      1 UNK         0.0000 
     37 C37         1.3651    3.3415   -5.2163 C.2       1 UNK         0.0000 
     38 O38         1.7273    3.5879   -6.3629 O.2       1 UNK         0.0000 
     39 C39         2.3934    2.7982   -4.2090 C.3       1 UNK         0.0000 
     40 C40         2.1118    1.3752   -3.6755 C.3       1 UNK         0.0000 
     41 C41         1.1049    1.3739   -2.5291 C.2       1 UNK         0.0000 
     42 O42         1.1640    2.1377   -1.5700 O.co2     1 UNK         0.0000 
     43 N43         0.0327    0.5642   -2.4344 N.am      1 UNK         0.0000 
     44 O44        -0.7657    0.7729   -1.3922 O.co2     1 UNK         0.0000 
     45 C45        -0.2789   -0.5663   -3.3026 C.3       1 UNK         0.0000 
     46 C46         0.6488   -1.7774   -3.0475 C.3       1 UNK         0.0000 
     47 C47         0.2405   -3.0636   -3.7867 C.3       1 UNK         0.0000 
     48 C48        -1.0217   -3.7259   -3.1982 C.3       1 UNK         0.0000 
     49 C49        -1.5186   -4.9408   -3.9873 C.3       1 UNK         0.0000 
     50 N50        -0.5976   -6.0727   -3.9462 N.am      1 UNK         0.0000 
     51 C51        -0.9341   -7.3086   -3.5587 C.2       1 UNK         0.0000 
     52 O52        -2.0513   -7.6218   -3.1543 O.2       1 UNK         0.0000 
     53 C53         0.1481   -8.3799   -3.7064 C.3       1 UNK         0.0000 
     54 C54         0.3834   -9.2416   -2.4415 C.3       1 UNK         0.0000 
     55 C55         1.2312   -8.5545   -1.3488 C.2       1 UNK         0.0000 
     56 O56         2.3228   -8.0940   -1.6918 O.2       1 UNK         0.0000 
     57 H57        -0.3986   -9.7730    0.7160 H         1 UNK         0.0000 
     58 H58         1.6760   -8.7383    1.8509 H         1 UNK         0.0000 
     59 H59         2.6060   -7.7614    0.7822 H         1 UNK         0.0000 
     60 H60        -0.0262   -6.9319    2.0902 H         1 UNK         0.0000 
     61 H61         0.8752   -5.9157    0.9644 H         1 UNK         0.0000 
     62 H62         2.0203   -7.0303    3.5822 H         1 UNK         0.0000 
     63 H63         2.8411   -5.9282    2.5237 H         1 UNK         0.0000 
     64 H64         0.2695   -5.2789    4.0368 H         1 UNK         0.0000 
     65 H65         1.8488   -4.8955    4.6377 H         1 UNK         0.0000 
     66 H66         0.4725   -3.7760    2.2270 H         1 UNK         0.0000 
     67 H67         2.4276   -1.1410    1.7663 H         1 UNK         0.0000 
     68 H68         0.8296   -1.8233    1.5095 H         1 UNK         0.0000 
     69 H69         0.1365   -0.7222    3.7959 H         1 UNK         0.0000 
     70 H70         1.6719    0.1751    3.6953 H         1 UNK         0.0000 
     71 H71        -1.7940    2.2772    4.1720 H         1 UNK         0.0000 
     72 H72        -0.2591    1.6735    4.6695 H         1 UNK         0.0000 
     73 H73         0.9211    3.6225    3.9517 H         1 UNK         0.0000 
     74 H74        -0.4189    4.2118    2.9944 H         1 UNK         0.0000 
     75 H75        -1.7380    4.7102    4.9998 H         1 UNK         0.0000 
     76 H76        -0.4591    4.1044    6.0265 H         1 UNK         0.0000 
     77 H77        -0.4672    6.5416    5.9571 H         1 UNK         0.0000 
     78 H78         1.0398    5.9548    5.3871 H         1 UNK         0.0000 
     79 H79        -0.1355    7.9467    4.1242 H         1 UNK         0.0000 
     80 H80        -1.1891    6.7496    3.4625 H         1 UNK         0.0000 
     81 H81         1.3319    5.7517    2.9077 H         1 UNK         0.0000 
     82 H82         2.5148    7.5467    0.3593 H         1 UNK         0.0000 
     83 H83         2.5075    5.9383    0.9589 H         1 UNK         0.0000 
     84 H84         1.9727    6.0802   -1.4644 H         1 UNK         0.0000 
     85 H85         0.6558    7.1433   -1.1855 H         1 UNK         0.0000 
     86 H86        -1.9634    4.7490   -3.0867 H         1 UNK         0.0000 
     87 H87        -2.3181    6.0218   -2.0102 H         1 UNK         0.0000 
     88 H88        -0.5927    7.3829   -2.8981 H         1 UNK         0.0000 
     89 H89         0.3755    6.0502   -3.5036 H         1 UNK         0.0000 
     90 H90        -2.3950    6.5544   -4.6541 H         1 UNK         0.0000 
     91 H91        -1.0994    7.6095   -5.1058 H         1 UNK         0.0000 
     92 H92         0.1807    5.8523   -6.1577 H         1 UNK         0.0000 
     93 H93        -1.4337    5.8611   -6.7621 H         1 UNK         0.0000 
     94 H94        -1.9173    3.8916   -5.1345 H         1 UNK         0.0000 
     95 H95        -1.0257    3.5641   -6.5596 H         1 UNK         0.0000 
     96 H96        -0.1522    3.2987   -3.8427 H         1 UNK         0.0000 
     97 H97         3.3445    2.7517   -4.7430 H         1 UNK         0.0000 
     98 H98         2.5660    3.5111   -3.4024 H         1 UNK         0.0000 
     99 H99         3.0215    1.0038   -3.2061 H         1 UNK         0.0000 
    100 H100        1.8840    0.6785   -4.4773 H         1 UNK         0.0000 
    101 H101       -1.3207   -0.8496   -3.1489 H         1 UNK         0.0000 
    102 H102       -0.2453   -0.2811   -4.3556 H         1 UNK         0.0000 
    103 H103        1.6471   -1.4995   -3.3893 H         1 UNK         0.0000 
    104 H104        0.7117   -1.9876   -1.9758 H         1 UNK         0.0000 
    105 H105        0.1037   -2.8464   -4.8468 H         1 UNK         0.0000 
    106 H106        1.0701   -3.7685   -3.7318 H         1 UNK         0.0000 
    107 H107       -0.8482   -4.0085   -2.1598 H         1 UNK         0.0000 
    108 H108       -1.8347   -3.0021   -3.1705 H         1 UNK         0.0000 
    109 H109       -1.6069   -4.6573   -5.0336 H         1 UNK         0.0000 
    110 H110       -2.5320   -5.1986   -3.6770 H         1 UNK         0.0000 
    111 H111        0.3188   -5.9434   -4.3422 H         1 UNK         0.0000 
    112 H112        1.0812   -8.0032   -4.1270 H         1 UNK         0.0000 
    113 H113       -0.2470   -9.0356   -4.4799 H         1 UNK         0.0000 
    114 H114       -0.5474   -9.6869   -2.0917 H         1 UNK         0.0000 
    115 H115        0.9785  -10.1026   -2.7539 H         1 UNK         0.0000 
@<TRIPOS>BOND
     1    1   14 nc   
     2    1   16 nc   
     3    1   28 nc   
     4    1   30 nc   
     5    1   42 nc   
     6    1   44 nc   
     7    2   57 1    
     8    2    3 1    
     9    3    4 1    
    10    3   55 am   BACKBONE|DICT|INTERRES
    11    4    5 1    
    12    4   58 1    
    13    4   59 1    
    14    5   60 1    
    15    5    6 1    
    16    5   61 1    
    17    6   62 1    
    18    6    7 1    
    19    6   63 1    
    20    7   64 1    
    21    7   65 1    
    22    7    8 1    
    23    8    9 am   BACKBONE|DICT|INTERRES
    24    8   66 1    
    25    9   10 2    
    26    9   11 1    
    27   11   12 1    
    28   11   67 1    
    29   11   68 1    
    30   12   69 1    
    31   12   70 1    
    32   12   13 1    
    33   13   15 am   BACKBONE|DICT|INTERRES
    34   13   14 2    
    35   15   17 1    
    36   15   16 1    
    37   17   71 1    
    38   17   72 1    
    39   17   18 1    
    40   18   73 1    
    41   18   19 1    
    42   18   74 1    
    43   19   20 1    
    44   19   76 1    
    45   19   75 1    
    46   20   78 1    
    47   20   77 1    
    48   20   21 1    
    49   21   79 1    
    50   21   22 1    
    51   21   80 1    
    52   22   81 1    
    53   22   23 am   BACKBONE|DICT|INTERRES
    54   23   24 2    
    55   23   25 1    
    56   25   83 1    
    57   25   26 1    
    58   25   82 1    
    59   26   27 1    
    60   26   84 1    
    61   26   85 1    
    62   27   28 2    
    63   27   29 am   BACKBONE|DICT|INTERRES
    64   29   30 1    
    65   29   31 1    
    66   31   87 1    
    67   31   32 1    
    68   31   86 1    
    69   32   88 1    
    70   32   33 1    
    71   32   89 1    
    72   33   90 1    
    73   33   34 1    
    74   33   91 1    
    75   34   35 1    
    76   34   92 1    
    77   34   93 1    
    78   35   94 1    
    79   35   36 1    
    80   35   95 1    
    81   36   96 1    
    82   36   37 am   BACKBONE|DICT|INTERRES
    83   37   39 1    
    84   37   38 2    
    85   39   40 1    
    86   39   98 1    
    87   39   97 1    
    88   40   99 1    
    89   40   41 1    
    90   40  100 1    
    91   41   43 am   BACKBONE|DICT|INTERRES
    92   41   42 2    
    93   43   44 1    
    94   43   45 1    
    95   45   46 1    
    96   45  101 1    
    97   45  102 1    
    98   46  104 1    
    99   46   47 1    
   100   46  103 1    
   101   47  106 1    
   102   47   48 1    
   103   47  105 1    
   104   48  107 1    
   105   48   49 1    
   106   48  108 1    
   107   49   50 1    
   108   49  110 1    
   109   49  109 1    
   110   50   51 am   BACKBONE|DICT|INTERRES
   111   50  111 1    
   112   51   52 2    
   113   51   53 1    
   114   53   54 1    
   115   53  112 1    
   116   53  113 1    
   117   54  114 1    
   118   54   55 1    
   119   54  115 1    
   120   55   56 2    
@<TRIPOS>SUBSTRUCTURE
     1 UNK         1 GROUP             0       ****    0 ROOT    
