@<TRIPOS>MOLECULE
063_c1
113   118    1
SMALL
USER_CHARGES


@<TRIPOS>ATOM
      1 Fe1         0.3530    4.0365   -1.8402 Fe        1 UNK         0.0000 
      2 O2          1.3697   10.4426    2.3369 O.3       1 UNK         0.0000 
      3 C3          1.0406    9.6784    3.4858 C.3       1 UNK         0.0000 
      4 C4          1.4802    8.2063    3.3379 C.3       1 UNK         0.0000 
      5 C5          0.7889    7.3091    2.3007 C.2       1 UNK         0.0000 
      6 C6         -0.3204    7.9845    1.4819 C.3       1 UNK         0.0000 
      7 C7          1.1844    6.0063    2.1568 C.2       1 UNK         0.0000 
      8 C8          2.2774    5.3694    3.0356 C.3       1 UNK         0.0000 
      9 C9          0.7164    5.1744    1.0503 C.2       1 UNK         0.0000 
     10 O10         0.5038    5.6537   -0.0813 O.co2     1 UNK         0.0000 
     11 N11         0.8014    3.8147    1.0999 N.am      1 UNK         0.0000 
     12 O12         1.1459    3.1922   -0.0036 O.co2     1 UNK         0.0000 
     13 C13         0.3367    2.8909    2.1648 C.3       1 UNK         0.0000 
     14 C14        -0.4519    1.6234    1.6394 C.3       1 UNK         0.0000 
     15 C15        -0.5987    0.3891    2.5519 C.3       1 UNK         0.0000 
     16 C16        -1.0803   -0.8762    1.7588 C.3       1 UNK         0.0000 
     17 H17        -0.4178   -1.0678    0.9141 H         1 UNK         0.0000 
     18 C18        -1.0104   -2.1385    2.6511 C.2       1 UNK         0.0000 
     19 O19        -0.6816   -2.0279    3.8302 O.2       1 UNK         0.0000 
     20 N20        -1.4208   -3.2869    2.0900 N.am      1 UNK         0.0000 
     21 C21        -1.4973   -4.6330    2.6763 C.3       1 UNK         0.0000 
     22 H22        -2.4606   -5.0239    2.3469 H         1 UNK         0.0000 
     23 C23        -1.5016   -4.6821    4.2288 C.3       1 UNK         0.0000 
     24 O24        -1.8810   -5.9586    4.7087 O.3       1 UNK         0.0000 
     25 C25        -0.3847   -5.4985    2.0692 C.2       1 UNK         0.0000 
     26 O26         0.7929   -5.1983    2.2548 O.2       1 UNK         0.0000 
     27 N27        -0.7773   -6.5680    1.3572 N.am      1 UNK         0.0000 
     28 C28         0.1175   -7.5436    0.7185 C.3       1 UNK         0.0000 
     29 H29        -0.5125   -8.2124    0.1316 H         1 UNK         0.0000 
     30 C30         0.8277   -8.3924    1.7980 C.3       1 UNK         0.0000 
     31 O31        -0.1396   -9.1779    2.4821 O.3       1 UNK         0.0000 
     32 C32         1.0737   -6.8921   -0.3054 C.2       1 UNK         0.0000 
     33 O33         2.2621   -7.2032   -0.3543 O.2       1 UNK         0.0000 
     34 N34         0.5034   -5.9884   -1.1067 N.am      1 UNK         0.0000 
     35 C35         1.2208   -5.0403   -1.9446 C.3       1 UNK         0.0000 
     36 C36         0.3082   -3.8028   -2.0181 C.2       1 UNK         0.0000 
     37 O37        -0.3326   -3.4412   -1.0262 O.2       1 UNK         0.0000 
     38 N38         0.2217   -3.2112   -3.2206 N.am      1 UNK         0.0000 
     39 C39        -0.8250   -2.3042   -3.7239 C.3       1 UNK         0.0000 
     40 H40        -1.0645   -2.9377   -4.5822 H         1 UNK         0.0000 
     41 C41        -0.3652   -1.0844   -4.5883 C.3       1 UNK         0.0000 
     42 C42         0.3806    0.0486   -3.8599 C.3       1 UNK         0.0000 
     43 C43         1.0692    1.1539   -4.7642 C.3       1 UNK         0.0000 
     44 N44         1.4998    2.3968   -4.0743 N.am      1 UNK         0.0000 
     45 O45         1.5520    2.2679   -2.7663 O.co2     1 UNK         0.0000 
     46 C46         1.5249    3.6512   -4.5958 C.2       1 UNK         0.0000 
     47 O47         1.2892    4.6106   -3.8320 O.co2     1 UNK         0.0000 
     48 C48         1.9407    3.8906   -6.0334 C.3       1 UNK         0.0000 
     49 C49        -2.2453   -2.3854   -3.0672 C.2       1 UNK         0.0000 
     50 O50        -2.9730   -3.2859   -3.4791 O.2       1 UNK         0.0000 
     51 N51        -2.7345   -1.6385   -2.0584 N.am      1 UNK         0.0000 
     52 C52        -2.3995   -0.4570   -1.2557 C.3       1 UNK         0.0000 
     53 H53        -1.3240   -0.3184   -1.1339 H         1 UNK         0.0000 
     54 C54        -3.0829   -0.7424    0.1129 C.2       1 UNK         0.0000 
     55 O55        -4.2931   -0.9536    0.0761 O.2       1 UNK         0.0000 
     56 N56        -2.4746   -0.7668    1.3145 N.am      1 UNK         0.0000 
     57 C57        -3.0771    0.7856   -1.9403 C.3       1 UNK         0.0000 
     58 C58        -3.5576    1.9995   -1.0625 C.3       1 UNK         0.0000 
     59 C59        -3.6347    3.3847   -1.7952 C.3       1 UNK         0.0000 
     60 N60        -2.3126    4.0098   -2.0619 N.am      1 UNK         0.0000 
     61 O61        -1.2665    3.1866   -1.9922 O.co2     1 UNK         0.0000 
     62 C62        -2.0925    5.3311   -2.2841 C.2       1 UNK         0.0000 
     63 O63        -0.8789    5.6108   -2.3384 O.co2     1 UNK         0.0000 
     64 C64        -3.1991    6.3942   -2.4351 C.3       1 UNK         0.0000 
     65 H65         1.1128   11.3597    2.4745 H         1 UNK         0.0000 
     66 H66        -0.0269    9.7648    3.6988 H         1 UNK         0.0000 
     67 H67         1.5589   10.1263    4.3379 H         1 UNK         0.0000 
     68 H68         1.3869    7.7264    4.3126 H         1 UNK         0.0000 
     69 H69         2.5462    8.2229    3.1047 H         1 UNK         0.0000 
     70 H70        -0.9224    7.2980    0.8915 H         1 UNK         0.0000 
     71 H71        -1.0269    8.4950    2.1329 H         1 UNK         0.0000 
     72 H72         0.1180    8.7049    0.7913 H         1 UNK         0.0000 
     73 H73         2.6833    4.4383    2.6442 H         1 UNK         0.0000 
     74 H74         1.9027    5.1816    4.0348 H         1 UNK         0.0000 
     75 H75         3.1366    6.0264    3.1169 H         1 UNK         0.0000 
     76 H76        -0.2270    3.4045    2.9532 H         1 UNK         0.0000 
     77 H77         1.2392    2.5385    2.6698 H         1 UNK         0.0000 
     78 H78        -1.4361    1.9334    1.2968 H         1 UNK         0.0000 
     79 H79         0.0799    1.2342    0.7700 H         1 UNK         0.0000 
     80 H80         0.3755    0.1642    2.9955 H         1 UNK         0.0000 
     81 H81        -1.2700    0.5809    3.3965 H         1 UNK         0.0000 
     82 H82        -1.5868   -3.2697    1.0937 H         1 UNK         0.0000 
     83 H83        -0.5137   -4.4405    4.6273 H         1 UNK         0.0000 
     84 H84        -2.2050   -3.9573    4.6395 H         1 UNK         0.0000 
     85 H85        -1.4007   -6.1239    5.5253 H         1 UNK         0.0000 
     86 H86        -1.7497   -6.8257    1.3838 H         1 UNK         0.0000 
     87 H87         1.3845   -7.7762    2.5053 H         1 UNK         0.0000 
     88 H88         1.5531   -9.0674    1.3413 H         1 UNK         0.0000 
     89 H89        -0.1982  -10.0384    2.0612 H         1 UNK         0.0000 
     90 H90        -0.4655   -5.7521   -0.9516 H         1 UNK         0.0000 
     91 H91         1.3930   -5.4779   -2.9291 H         1 UNK         0.0000 
     92 H92         2.1897   -4.7791   -1.5139 H         1 UNK         0.0000 
     93 H93         0.7777   -3.6257   -3.9527 H         1 UNK         0.0000 
     94 H94        -1.2410   -0.6669   -5.0902 H         1 UNK         0.0000 
     95 H95         0.2777   -1.4669   -5.3876 H         1 UNK         0.0000 
     96 H96         1.1562   -0.4002   -3.2357 H         1 UNK         0.0000 
     97 H97        -0.3248    0.5320   -3.1861 H         1 UNK         0.0000 
     98 H98         1.9492    0.7193   -5.2415 H         1 UNK         0.0000 
     99 H99         0.4008    1.4036   -5.5930 H         1 UNK         0.0000 
    100 H100        2.0187    2.9746   -6.6172 H         1 UNK         0.0000 
    101 H101        1.2731    4.5953   -6.5121 H         1 UNK         0.0000 
    102 H102        2.9250    4.3423   -5.9851 H         1 UNK         0.0000 
    103 H103       -3.6434   -1.9572   -1.7551 H         1 UNK         0.0000 
    104 H104       -3.1100   -0.9200    2.0814 H         1 UNK         0.0000 
    105 H105       -3.9734    0.4479   -2.4654 H         1 UNK         0.0000 
    106 H106       -2.4303    1.1118   -2.7518 H         1 UNK         0.0000 
    107 H107       -2.9277    2.1427   -0.1918 H         1 UNK         0.0000 
    108 H108       -4.5435    1.7473   -0.6578 H         1 UNK         0.0000 
    109 H109       -4.1383    3.2432   -2.7483 H         1 UNK         0.0000 
    110 H110       -4.3089    4.0426   -1.2476 H         1 UNK         0.0000 
    111 H111       -3.0593    6.9454   -3.3604 H         1 UNK         0.0000 
    112 H112       -3.1533    7.1216   -1.6256 H         1 UNK         0.0000 
    113 H113       -4.2172    6.0066   -2.4682 H         1 UNK         0.0000 
@<TRIPOS>BOND
     1    1   10 nc   
     2    1   12 nc   
     3    1   45 nc   
     4    1   47 nc   
     5    1   61 nc   
     6    1   63 nc   
     7    2   65 1    
     8    2    3 1    
     9    3   66 1    
    10    3   67 1    
    11    3    4 1    
    12    4   68 1    
    13    4    5 1    
    14    4   69 1    
    15    5    6 1    
    16    5    7 2    
    17    6   71 1    
    18    6   70 1    
    19    6   72 1    
    20    7    8 1    
    21    7    9 1    
    22    8   74 1    
    23    8   73 1    
    24    8   75 1    
    25    9   11 am   BACKBONE|DICT|INTERRES
    26    9   10 2    
    27   11   13 1    
    28   11   12 1    
    29   13   77 1    
    30   13   76 1    
    31   13   14 1    
    32   14   15 1    
    33   14   78 1    
    34   14   79 1    
    35   15   80 1    
    36   15   81 1    
    37   15   16 1    
    38   16   17 1    
    39   16   18 1    
    40   16   56 1    
    41   18   19 2    
    42   18   20 am   BACKBONE|DICT|INTERRES
    43   20   21 1    
    44   20   82 1    
    45   21   22 1    
    46   21   23 1    
    47   21   25 1    
    48   23   83 1    
    49   23   84 1    
    50   23   24 1    
    51   24   85 1    
    52   25   26 2    
    53   25   27 am   BACKBONE|DICT|INTERRES
    54   27   28 1    
    55   27   86 1    
    56   28   29 1    
    57   28   30 1    
    58   28   32 1    
    59   30   87 1    
    60   30   31 1    
    61   30   88 1    
    62   31   89 1    
    63   32   33 2    
    64   32   34 am   BACKBONE|DICT|INTERRES
    65   34   35 1    
    66   34   90 1    
    67   35   92 1    
    68   35   36 1    
    69   35   91 1    
    70   36   37 2    
    71   36   38 am   BACKBONE|DICT|INTERRES
    72   38   39 1    
    73   38   93 1    
    74   39   40 1    
    75   39   49 1    
    76   39   41 1    
    77   41   42 1    
    78   41   94 1    
    79   41   95 1    
    80   42   97 1    
    81   42   96 1    
    82   42   43 1    
    83   43   44 1    
    84   43   98 1    
    85   43   99 1    
    86   44   45 1    
    87   44   46 am   BACKBONE|DICT|INTERRES
    88   46   47 2    
    89   46   48 1    
    90   48  102 1    
    91   48  100 1    
    92   48  101 1    
    93   49   51 am   BACKBONE|DICT|INTERRES
    94   49   50 2    
    95   51  103 1    
    96   51   52 1    
    97   52   53 1    
    98   52   54 1    
    99   52   57 1    
   100   54   56 am   BACKBONE|DICT|INTERRES
   101   54   55 2    
   102   56  104 1    
   103   57   58 1    
   104   57  105 1    
   105   57  106 1    
   106   58  107 1    
   107   58  108 1    
   108   58   59 1    
   109   59  110 1    
   110   59   60 1    
   111   59  109 1    
   112   60   62 am   BACKBONE|DICT|INTERRES
   113   60   61 1    
   114   62   63 2    
   115   62   64 1    
   116   64  113 1    
   117   64  112 1    
   118   64  111 1    
@<TRIPOS>SUBSTRUCTURE
     1 UNK         1 GROUP             0       ****    0 ROOT    
