@<TRIPOS>MOLECULE
184_art_c1
178   189    1
SMALL
USER_CHARGES


@<TRIPOS>ATOM
      1 C1          2.7846    6.2159    2.7890 C.3       1 UNK         0.0000 
      2 C2          2.2724    6.4669    4.2474 C.3       1 UNK         0.0000 
      3 H3          2.3138    5.4836    4.7231 H         1 UNK         0.0000 
      4 C4          3.2365    7.2834    5.1442 C.3       1 UNK         0.0000 
      5 H5          3.3269    8.2953    4.7381 H         1 UNK         0.0000 
      6 C6          2.7752    7.3828    6.6172 C.3       1 UNK         0.0000 
      7 C7          4.6171    6.5880    5.1073 C.3       1 UNK         0.0000 
      8 C8          5.2064    6.5558    3.6922 C.3       1 UNK         0.0000 
      9 C9          4.3184    5.8550    2.6215 C.3       1 UNK         0.0000 
     10 H10         4.6527    6.3281    1.6887 H         1 UNK         0.0000 
     11 C11         4.6341    4.3503    2.2893 C.3       1 UNK         0.0000 
     12 H12         4.8524    4.3168    1.2150 H         1 UNK         0.0000 
     13 C13         5.8909    3.7323    2.9417 C.3       1 UNK         0.0000 
     14 C14         3.4092    3.4506    2.3976 C.3       1 UNK         0.0000 
     15 H15         3.5838    2.4747    1.9296 H         1 UNK         0.0000 
     16 O16         2.3800    4.0389    1.6208 O.3       1 UNK         0.0000 
     17 C17         1.7687    5.1485    2.2249 C.3       1 UNK         0.0000 
     18 H18         1.2025    4.6092    2.9903 H         1 UNK         0.0000 
     19 O19         0.6857    5.6554    1.4698 O.3       1 UNK         0.0000 
     20 C20         0.4610    7.0633    1.6228 C.3       1 UNK         0.0000 
     21 O21         1.6144    7.7609    1.2382 O.3       1 UNK         0.0000 
     22 O22         2.7352    7.4980    2.1247 O.3       1 UNK         0.0000 
     23 C23        -0.5719    7.4506    0.5488 C.3       1 UNK         0.0000 
     24 C24         0.0636    7.5141    3.0775 C.3       1 UNK         0.0000 
     25 C25         0.7477    6.8545    4.3164 C.3       1 UNK         0.0000 
     26 O26         3.1098    3.3162    3.7703 O.3       1 UNK         0.0000 
     27 C27         2.6582    2.0460    4.2365 C.3       1 UNK         0.0000 
     28 C28         3.8199    1.1168    4.6930 C.3       1 UNK         0.0000 
     29 C29         4.6625    1.5247    5.9565 C.3       1 UNK         0.0000 
     30 C30         3.9423    1.4786    7.3268 C.2       1 UNK         0.0000 
     31 O31         2.7217    1.4363    7.3626 O.2       1 UNK         0.0000 
     32 N32         4.5977    1.4887    8.5030 N.am      1 UNK         0.0000 
     33 C33         6.0285    1.3844    8.8531 C.3       1 UNK         0.0000 
     34 H34         6.5821    1.2070    7.9315 H         1 UNK         0.0000 
     35 C35         6.2738    0.1481    9.7803 C.2       1 UNK         0.0000 
     36 O36         5.3228   -0.4452   10.2802 O.2       1 UNK         0.0000 
     37 N37         7.5458   -0.2429   10.0039 N.am      1 UNK         0.0000 
     38 C38         7.9694   -1.5384   10.5919 C.3       1 UNK         0.0000 
     39 H39         7.1009   -2.0120   11.0634 H         1 UNK         0.0000 
     40 C40         8.9012   -1.2492   11.8297 C.2       1 UNK         0.0000 
     41 O41         8.5948   -0.3242   12.6016 O.co2     1 UNK         0.0000 
     42 N42         9.9632   -2.0468   12.2124 N.am      1 UNK         0.0000 
     43 O43        10.6769   -1.6691   13.3171 O.co2     1 UNK         0.0000 
     44 C44         8.3286   -2.4498    9.4073 C.3       1 UNK         0.0000 
     45 C45         8.7608   -3.8561    9.7619 C.3       1 UNK         0.0000 
     46 C46        10.1737   -3.8550   10.3196 C.3       1 UNK         0.0000 
     47 C47        10.2799   -3.4260   11.7885 C.3       1 UNK         0.0000 
     48 C48         6.5418    2.7079    9.5085 C.3       1 UNK         0.0000 
     49 N49         8.0017    2.7302    9.7257 N.am      1 UNK         0.0000 
     50 C50         8.7543    2.9874   10.8158 C.2       1 UNK         0.0000 
     51 O51         9.9481    2.7392   10.7458 O.2       1 UNK         0.0000 
     52 C52         8.1628    3.5633   12.1327 C.3       1 UNK         0.0000 
     53 H53         7.7397    4.5313   11.8469 H         1 UNK         0.0000 
     54 N54         7.0773    2.7192   12.6543 N.am      1 UNK         0.0000 
     55 C55         6.3856    3.0939   13.7491 C.2       1 UNK         0.0000 
     56 O56         6.1256    4.2716   13.9731 O.2       1 UNK         0.0000 
     57 C57         6.1115    2.0431   14.8591 C.3       1 UNK         0.0000 
     58 H58         5.3900    2.4916   15.5508 H         1 UNK         0.0000 
     59 N59         5.5539    0.8295   14.3356 N.2       1 UNK         0.0000 
     60 C60         6.4153   -0.0950   14.5249 C.2       1 UNK         0.0000 
     61 O61         7.6464    0.3442   15.0217 O.3       1 UNK         0.0000 
     62 C62         7.3767    1.6097   15.6268 C.3       1 UNK         0.0000 
     63 C63         6.2317   -1.5223   14.1911 C.ar      1 UNK         0.0000 
     64 C64         7.2245   -2.5020   14.3925 C.ar      1 UNK         0.0000 
     65 O65         8.3547   -2.2136   14.8908 O.co2     1 UNK         0.0000 
     66 C66         6.9957   -3.8253   14.0164 C.ar      1 UNK         0.0000 
     67 C67         5.7678   -4.1986   13.4615 C.ar      1 UNK         0.0000 
     68 C68         4.7727   -3.2476   13.2750 C.ar      1 UNK         0.0000 
     69 C69         5.0046   -1.9241   13.6368 C.ar      1 UNK         0.0000 
     70 C70         9.1436    3.8175   13.3440 C.3       1 UNK         0.0000 
     71 C71        10.6713    4.0513   13.3583 C.3       1 UNK         0.0000 
     72 C72        11.2269    3.9653   14.8260 C.3       1 UNK         0.0000 
     73 C73        11.8584    2.6232   15.3465 C.3       1 UNK         0.0000 
     74 N74        11.0022    1.4196   15.4081 N.am      1 UNK         0.0000 
     75 O75        10.4643    1.1182   14.2208 O.co2     1 UNK         0.0000 
     76 C76        10.8788    0.6013   16.5052 C.2       1 UNK         0.0000 
     77 O77        10.2104   -0.4409   16.2902 O.co2     1 UNK         0.0000 
     78 C78        11.4290    0.9884   17.9553 C.3       1 UNK         0.0000 
     79 C79        12.8351    0.4215   18.5086 C.3       1 UNK         0.0000 
     80 C80        13.7861    1.1354   19.6169 C.3       1 UNK         0.0000 
     81 C81        13.2332    1.8499   20.9178 C.3       1 UNK         0.0000 
     82 C82        13.8077    1.5039   22.3703 C.3       1 UNK         0.0000 
     83 C83        15.2299    1.9731   22.8779 C.3       1 UNK         0.0000 
     84 C84        15.5140    1.7814   24.4304 C.3       1 UNK         0.0000 
     85 C85        16.9656    2.0789   24.9665 C.3       1 UNK         0.0000 
     86 C86        17.3899    1.5455   26.3974 C.3       1 UNK         0.0000 
     87 C87        17.4775    2.5409   27.6102 C.3       1 UNK         0.0000 
     88 C88        18.3377    2.0448   28.8288 C.3       1 UNK         0.0000 
     89 C89        18.4886    3.0415   30.0205 C.3       1 UNK         0.0000 
     90 C90        19.5232    2.6390   31.1176 C.3       1 UNK         0.0000 
     91 C91        19.7234    3.7123   32.2224 C.3       1 UNK         0.0000 
     92 C92        20.9433    3.5148   33.1553 C.3       1 UNK         0.0000 
     93 C93        20.7997    2.3995   34.2000 C.3       1 UNK         0.0000 
     94 H94         1.8628    7.9681    6.7411 H         1 UNK         0.0000 
     95 H95         3.5304    7.8751    7.2327 H         1 UNK         0.0000 
     96 H96         2.5967    6.3932    7.0464 H         1 UNK         0.0000 
     97 H97         4.5521    5.5745    5.5214 H         1 UNK         0.0000 
     98 H98         5.3074    7.1216    5.7687 H         1 UNK         0.0000 
     99 H99         6.2422    6.2196    3.6769 H         1 UNK         0.0000 
    100 H100        5.2810    7.6038    3.3941 H         1 UNK         0.0000 
    101 H101        5.8230    3.7503    4.0321 H         1 UNK         0.0000 
    102 H102        6.7903    4.2752    2.6403 H         1 UNK         0.0000 
    103 H103        6.0347    2.6903    2.6323 H         1 UNK         0.0000 
    104 H104       -0.2519    7.1338   -0.4490 H         1 UNK         0.0000 
    105 H105       -0.7305    8.5314    0.5118 H         1 UNK         0.0000 
    106 H106       -1.5354    6.9825    0.7498 H         1 UNK         0.0000 
    107 H107       -1.0117    7.3589    3.1932 H         1 UNK         0.0000 
    108 H108        0.1986    8.5989    3.1428 H         1 UNK         0.0000 
    109 H109        0.1920    5.9387    4.5338 H         1 UNK         0.0000 
    110 H110        0.5312    7.4817    5.1787 H         1 UNK         0.0000 
    111 H111        2.0552    1.5554    3.4658 H         1 UNK         0.0000 
    112 H112        1.9652    2.2243    5.0591 H         1 UNK         0.0000 
    113 H113        4.4974    0.9845    3.8451 H         1 UNK         0.0000 
    114 H114        3.3934    0.1255    4.8698 H         1 UNK         0.0000 
    115 H115        5.0832    2.5199    5.8193 H         1 UNK         0.0000 
    116 H116        5.5022    0.8301    6.0066 H         1 UNK         0.0000 
    117 H117        3.9925    1.3713    9.3097 H         1 UNK         0.0000 
    118 H118        8.2848    0.3012    9.5772 H         1 UNK         0.0000 
    119 H119        9.0848   -1.9772    8.7733 H         1 UNK         0.0000 
    120 H120        7.4318   -2.5325    8.7799 H         1 UNK         0.0000 
    121 H121        8.7436   -4.4528    8.8464 H         1 UNK         0.0000 
    122 H122        8.0530   -4.3307   10.4474 H         1 UNK         0.0000 
    123 H123       10.8457   -3.2681    9.6893 H         1 UNK         0.0000 
    124 H124       10.5408   -4.8834   10.2549 H         1 UNK         0.0000 
    125 H125       11.2972   -3.6802   12.1067 H         1 UNK         0.0000 
    126 H126        9.6502   -4.0890   12.3829 H         1 UNK         0.0000 
    127 H127        5.9760    2.9192   10.4150 H         1 UNK         0.0000 
    128 H128        6.3070    3.5436    8.8447 H         1 UNK         0.0000 
    129 H129        8.5636    2.5052    8.9176 H         1 UNK         0.0000 
    130 H130        7.1323    1.7381   12.4205 H         1 UNK         0.0000 
    131 H131        8.2077    2.3117   15.6428 H         1 UNK         0.0000 
    132 H132        7.1306    1.4530   16.6831 H         1 UNK         0.0000 
    133 H133        7.7587   -4.5788   14.1705 H         1 UNK         0.0000 
    134 H134        5.5875   -5.2268   13.1935 H         1 UNK         0.0000 
    135 H135        3.8114   -3.5337   12.8697 H         1 UNK         0.0000 
    136 H136        4.2079   -1.2126   13.4937 H         1 UNK         0.0000 
    137 H137        8.7023    4.6151   13.9470 H         1 UNK         0.0000 
    138 H138        9.0419    2.9281   13.9333 H         1 UNK         0.0000 
    139 H139       10.8769    5.0346   12.9300 H         1 UNK         0.0000 
    140 H140       11.2228    3.3346   12.7550 H         1 UNK         0.0000 
    141 H141       10.4715    4.3009   15.5340 H         1 UNK         0.0000 
    142 H142       12.0064    4.7211   14.9119 H         1 UNK         0.0000 
    143 H143       12.3108    2.8363   16.3175 H         1 UNK         0.0000 
    144 H144       12.7040    2.3775   14.6884 H         1 UNK         0.0000 
    145 H145       10.6321    0.6247   18.6246 H         1 UNK         0.0000 
    146 H146       11.3736    2.0682   18.0819 H         1 UNK         0.0000 
    147 H147       13.4873    0.3188   17.6307 H         1 UNK         0.0000 
    148 H148       12.7004   -0.6314   18.8236 H         1 UNK         0.0000 
    149 H149       14.4310    1.8591   19.1163 H         1 UNK         0.0000 
    150 H150       14.5138    0.3960   19.9820 H         1 UNK         0.0000 
    151 H151       12.1630    1.6563   20.9477 H         1 UNK         0.0000 
    152 H152       13.3306    2.9335   20.7951 H         1 UNK         0.0000 
    153 H153       13.7175    0.4310   22.5462 H         1 UNK         0.0000 
    154 H154       13.1049    1.9530   23.0835 H         1 UNK         0.0000 
    155 H155       15.3650    3.0263   22.6303 H         1 UNK         0.0000 
    156 H156       15.9879    1.4373   22.3031 H         1 UNK         0.0000 
    157 H157       14.8217    2.4032   24.9983 H         1 UNK         0.0000 
    158 H158       15.2679    0.7530   24.6983 H         1 UNK         0.0000 
    159 H159       17.1893    3.1461   24.8984 H         1 UNK         0.0000 
    160 H160       17.6539    1.6122   24.2564 H         1 UNK         0.0000 
    161 H161       16.7787    0.6834   26.6778 H         1 UNK         0.0000 
    162 H162       18.3987    1.1323   26.2892 H         1 UNK         0.0000 
    163 H163       17.9047    3.4838   27.2638 H         1 UNK         0.0000 
    164 H164       16.4692    2.7776   27.9545 H         1 UNK         0.0000 
    165 H165       19.3387    1.7980   28.4703 H         1 UNK         0.0000 
    166 H166       17.9268    1.1090   29.2131 H         1 UNK         0.0000 
    167 H167       17.5148    3.1884   30.4920 H         1 UNK         0.0000 
    168 H168       18.7764    4.0176   29.6263 H         1 UNK         0.0000 
    169 H169       19.2294    1.6965   31.5844 H         1 UNK         0.0000 
    170 H170       20.4882    2.4497   30.6431 H         1 UNK         0.0000 
    171 H171       18.8178    3.8032   32.8262 H         1 UNK         0.0000 
    172 H172       19.8527    4.6842   31.7402 H         1 UNK         0.0000 
    173 H173       21.8476    3.3457   32.5667 H         1 UNK         0.0000 
    174 H174       21.1225    4.4452   33.7013 H         1 UNK         0.0000 
    175 H175       19.9398    2.5718   34.8492 H         1 UNK         0.0000 
    176 H176       21.6840    2.3632   34.8422 H         1 UNK         0.0000 
    177 H177       20.6908    1.4204   33.7353 H         1 UNK         0.0000 
    178 Fe178       9.3897   -0.5619   14.4045 Fe        1 UNK         0.0000 
@<TRIPOS>BOND
     1    1    2 1    
     2    1   22 1    
     3    1    9 1    
     4    1   17 1    
     5    2    3 1    
     6    2    4 1    
     7    2   25 1    
     8    4    5 1    
     9    4    6 1    
    10    4    7 1    
    11    6   94 1    
    12    6   95 1    
    13    6   96 1    
    14    7    8 1    
    15    7   97 1    
    16    7   98 1    
    17    8    9 1    
    18    8   99 1    
    19    8  100 1    
    20    9   10 1    
    21    9   11 1    
    22   11   13 1    
    23   11   12 1    
    24   11   14 1    
    25   13  101 1    
    26   13  102 1    
    27   13  103 1    
    28   14   15 1    
    29   14   16 1    
    30   14   26 1    
    31   16   17 1    
    32   17   18 1    
    33   17   19 1    
    34   19   20 1    
    35   20   21 1    
    36   20   23 1    
    37   20   24 1    
    38   21   22 1    
    39   23  104 1    
    40   23  105 1    
    41   23  106 1    
    42   24   25 1    
    43   24  107 1    
    44   24  108 1    
    45   25  109 1    
    46   25  110 1    
    47   26   27 1    
    48   27   28 1    
    49   27  111 1    
    50   27  112 1    
    51   28   29 1    
    52   28  113 1    
    53   28  114 1    
    54   29   30 1    
    55   29  115 1    
    56   29  116 1    
    57   30   31 2    
    58   30   32 am   BACKBONE|DICT|INTERRES
    59   32  117 1    
    60   32   33 1    
    61   33   35 1    
    62   33   48 1    
    63   33   34 1    
    64   35   36 2    
    65   35   37 am   BACKBONE|DICT|INTERRES
    66   37   38 1    
    67   37  118 1    
    68   38   39 1    
    69   38   40 1    
    70   38   44 1    
    71   40   41 2    
    72   40   42 am   BACKBONE|DICT|INTERRES
    73   41  178 nc   
    74   42   43 1    
    75   42   47 1    
    76   43  178 nc   
    77   44   45 1    
    78   44  119 1    
    79   44  120 1    
    80   45   46 1    
    81   45  121 1    
    82   45  122 1    
    83   46   47 1    
    84   46  123 1    
    85   46  124 1    
    86   47  125 1    
    87   47  126 1    
    88   48   49 1    
    89   48  127 1    
    90   48  128 1    
    91   49   50 am   BACKBONE|DICT|INTERRES
    92   49  129 1    
    93   50   51 2    
    94   50   52 1    
    95   52   53 1    
    96   52   54 1    
    97   52   70 1    
    98   54   55 am   BACKBONE|DICT|INTERRES
    99   54  130 1    
   100   55   56 2    
   101   55   57 1    
   102   57   58 1    
   103   57   59 1    
   104   57   62 1    
   105   59   60 2    
   106   60   61 1    
   107   60   63 1    
   108   61   62 1    
   109   61  178 nc   
   110   62  131 1    
   111   62  132 1    
   112   63   64 ar   
   113   63   69 ar   
   114   64   65 1    
   115   64   66 ar   
   116   65  178 nc   
   117   66   67 ar   
   118   66  133 1    
   119   67   68 ar   
   120   67  134 1    
   121   68   69 ar   
   122   68  135 1    
   123   69  136 1    
   124   70   71 1    
   125   70  137 1    
   126   70  138 1    
   127   71   72 1    
   128   71  139 1    
   129   71  140 1    
   130   72   73 1    
   131   72  141 1    
   132   72  142 1    
   133   73   74 1    
   134   73  143 1    
   135   73  144 1    
   136   74   75 1    
   137   74   76 am   BACKBONE|DICT|INTERRES
   138   75  178 nc   
   139   76   77 2    
   140   76   78 1    
   141   77  178 nc   
   142   78   79 1    
   143   78  145 1    
   144   78  146 1    
   145   79   80 1    
   146   79  147 1    
   147   79  148 1    
   148   80   81 1    
   149   80  149 1    
   150   80  150 1    
   151   81   82 1    
   152   81  151 1    
   153   81  152 1    
   154   82   83 1    
   155   82  153 1    
   156   82  154 1    
   157   83   84 1    
   158   83  155 1    
   159   83  156 1    
   160   84   85 1    
   161   84  157 1    
   162   84  158 1    
   163   85   86 1    
   164   85  159 1    
   165   85  160 1    
   166   86   87 1    
   167   86  161 1    
   168   86  162 1    
   169   87   88 1    
   170   87  163 1    
   171   87  164 1    
   172   88   89 1    
   173   88  165 1    
   174   88  166 1    
   175   89   90 1    
   176   89  167 1    
   177   89  168 1    
   178   90   91 1    
   179   90  169 1    
   180   90  170 1    
   181   91   92 1    
   182   91  171 1    
   183   91  172 1    
   184   92   93 1    
   185   92  173 1    
   186   92  174 1    
   187   93  175 1    
   188   93  176 1    
   189   93  177 1    
@<TRIPOS>SUBSTRUCTURE
     1 UNK         1 GROUP             0       ****    0 ROOT    
