@<TRIPOS>MOLECULE
034_c1
97   104    1
SMALL
USER_CHARGES


@<TRIPOS>ATOM
      1 Fe1         1.2972   -0.5631    2.2105 Fe        1 UNK         0.0000 
      2 C2         -1.7145   -3.6712    5.0356 C.ar      1 UNK         0.0000 
      3 C3         -0.4818   -4.3040    5.2982 C.ar      1 UNK         0.0000 
      4 C4          0.7208   -3.6948    4.9022 C.ar      1 UNK         0.0000 
      5 C5          0.6491   -2.4429    4.2897 C.ar      1 UNK         0.0000 
      6 O6          1.6576   -1.6982    3.8144 O.co2     1 UNK         0.0000 
      7 C7         -0.5038   -1.8265    4.0783 C.ar      1 UNK         0.0000 
      8 O8         -0.2441   -0.6090    3.5911 O.co2     1 UNK         0.0000 
      9 C9         -1.7473   -2.4181    4.3825 C.ar      1 UNK         0.0000 
     10 C10        -3.0498   -1.8091    3.9917 C.2       1 UNK         0.0000 
     11 O11        -4.0414   -2.0271    4.6738 O.2       1 UNK         0.0000 
     12 N12        -3.1589   -1.1315    2.8067 N.am      1 UNK         0.0000 
     13 C13        -4.3982   -0.5404    2.3143 C.3       1 UNK         0.0000 
     14 C14        -4.9928   -1.3071    1.1112 C.3       1 UNK         0.0000 
     15 C15        -4.4800   -1.0898   -0.3414 C.3       1 UNK         0.0000 
     16 C16        -3.0250   -1.4730   -0.6743 C.3       1 UNK         0.0000 
     17 C17        -2.0284   -0.3147   -0.4854 C.3       1 UNK         0.0000 
     18 H18        -2.1725    0.0704    0.5341 H         1 UNK         0.0000 
     19 C19        -0.5953   -0.8049   -0.5359 C.2       1 UNK         0.0000 
     20 O20         0.0608   -0.6089    0.4397 O.co2     1 UNK         0.0000 
     21 N21        -0.0372   -1.5019   -1.5499 N.am      1 UNK         0.0000 
     22 C22         1.3334   -2.0608   -1.5533 C.3       1 UNK         0.0000 
     23 H23         1.7462   -1.7454   -2.5369 H         1 UNK         0.0000 
     24 C24         2.3426   -1.5521   -0.4619 C.2       1 UNK         0.0000 
     25 O25         2.2137   -1.7456    0.8987 O.co2     1 UNK         0.0000 
     26 O26         3.3175   -0.9258   -0.8462 O.co2     1 UNK         0.0000 
     27 C27         1.1982   -3.6000   -1.5583 C.3       1 UNK         0.0000 
     28 C28         2.3619   -4.4231   -2.0734 C.ar      1 UNK         0.0000 
     29 C29         3.5724   -3.8756   -2.5457 C.ar      1 UNK         0.0000 
     30 C30         4.5729   -4.7100   -3.0563 C.ar      1 UNK         0.0000 
     31 C31         4.3812   -6.0925   -3.1030 C.ar      1 UNK         0.0000 
     32 C32         3.1892   -6.6465   -2.6356 C.ar      1 UNK         0.0000 
     33 C33         2.1873   -5.8186   -2.1246 C.ar      1 UNK         0.0000 
     34 N34        -2.2765    0.7757   -1.4297 N.am      1 UNK         0.0000 
     35 C35        -2.6446    2.0231   -0.9982 C.2       1 UNK         0.0000 
     36 O36        -2.7314    2.2567    0.2010 O.2       1 UNK         0.0000 
     37 C37        -2.9969    3.1581   -1.9422 C.3       1 UNK         0.0000 
     38 H38        -3.2884    3.9955   -1.2785 H         1 UNK         0.0000 
     39 N39        -4.1680    2.7991   -2.7544 N.4       1 UNK         0.0000 
     40 H40        -4.4990    3.6160   -3.3133 H         1 UNK         0.0000 
     41 H41        -4.9545    2.5064   -2.1294 H         1 UNK         0.0000 
     42 H42        -3.9406    2.0110   -3.4029 H         1 UNK         0.0000 
     43 C43        -1.7993    3.6086   -2.8268 C.3       1 UNK         0.0000 
     44 C44        -1.9824    5.0440   -3.4098 C.3       1 UNK         0.0000 
     45 C45        -1.8025    6.1450   -2.3319 C.3       1 UNK         0.0000 
     46 C46        -0.3201    6.3887   -1.9971 C.3       1 UNK         0.0000 
     47 N47        -0.1639    6.8393   -0.6189 N.am      1 UNK         0.0000 
     48 C48         0.6250    6.1565    0.2600 C.2       1 UNK         0.0000 
     49 O49         1.2683    5.1894   -0.1308 O.2       1 UNK         0.0000 
     50 C50         0.7396    6.5695    1.7198 C.3       1 UNK         0.0000 
     51 N51         1.6759    5.6877    2.4049 N.am      1 UNK         0.0000 
     52 C52         1.4466    4.3435    2.5178 C.2       1 UNK         0.0000 
     53 O53         0.3594    3.8952    2.1819 O.2       1 UNK         0.0000 
     54 C54         2.5386    3.3921    2.8789 C.ar      1 UNK         0.0000 
     55 C55         2.4067    1.9992    2.6599 C.ar      1 UNK         0.0000 
     56 O56         1.4948    1.1489    2.2246 O.co2     1 UNK         0.0000 
     57 C57         3.2644    1.2247    2.7806 C.ar      1 UNK         0.0000 
     58 O58         2.6004    0.1344    2.2944 O.co2     1 UNK         0.0000 
     59 C59         4.5648    1.4944    3.2179 C.ar      1 UNK         0.0000 
     60 C60         4.8425    2.8391    3.5288 C.ar      1 UNK         0.0000 
     61 C61         3.8237    3.8079    3.3453 C.ar      1 UNK         0.0000 
     62 H62        -2.6336   -4.1762    5.3058 H         1 UNK         0.0000 
     63 H63        -0.4631   -5.2732    5.7793 H         1 UNK         0.0000 
     64 H64         1.6730   -4.1807    5.0698 H         1 UNK         0.0000 
     65 H65        -2.3317   -1.1002    2.2079 H         1 UNK         0.0000 
     66 H66        -4.2667    0.5381    2.0848 H         1 UNK         0.0000 
     67 H67        -5.1649   -0.6017    3.1170 H         1 UNK         0.0000 
     68 H68        -4.9824   -2.3916    1.3571 H         1 UNK         0.0000 
     69 H69        -6.0624   -1.0032    1.0593 H         1 UNK         0.0000 
     70 H70        -5.1183   -1.7752   -0.9425 H         1 UNK         0.0000 
     71 H71        -4.7033   -0.0636   -0.7040 H         1 UNK         0.0000 
     72 H72        -2.7532   -2.3727   -0.0799 H         1 UNK         0.0000 
     73 H73        -2.9670   -1.7521   -1.7493 H         1 UNK         0.0000 
     74 H74        -0.6343   -1.7147   -2.3636 H         1 UNK         0.0000 
     75 H75         0.9084   -3.9345   -0.5381 H         1 UNK         0.0000 
     76 H76         0.3599   -3.8577   -2.2441 H         1 UNK         0.0000 
     77 H77         3.7556   -2.8133   -2.5433 H         1 UNK         0.0000 
     78 H78         5.4961   -4.2825   -3.4253 H         1 UNK         0.0000 
     79 H79         5.1538   -6.7344   -3.5058 H         1 UNK         0.0000 
     80 H80         3.0364   -7.7174   -2.6764 H         1 UNK         0.0000 
     81 H81         1.2629   -6.2663   -1.7787 H         1 UNK         0.0000 
     82 H82        -2.1994    0.5882   -2.4405 H         1 UNK         0.0000 
     83 H83        -0.8631    3.5856   -2.2332 H         1 UNK         0.0000 
     84 H84        -1.6776    2.8683   -3.6463 H         1 UNK         0.0000 
     85 H85        -2.9880    5.1208   -3.8669 H         1 UNK         0.0000 
     86 H86        -1.2460    5.2348   -4.2207 H         1 UNK         0.0000 
     87 H87        -2.3671    5.8733   -1.4223 H         1 UNK         0.0000 
     88 H88        -2.2206    7.1166   -2.6736 H         1 UNK         0.0000 
     89 H89         0.2573    5.4599   -2.1647 H         1 UNK         0.0000 
     90 H90         0.1016    7.1296   -2.7100 H         1 UNK         0.0000 
     91 H91        -0.6726    7.6786   -0.3025 H         1 UNK         0.0000 
     92 H92         1.1227    7.6120    1.7547 H         1 UNK         0.0000 
     93 H93        -0.2523    6.5376    2.2199 H         1 UNK         0.0000 
     94 H94         2.5722    6.1000    2.6928 H         1 UNK         0.0000 
     95 H95         5.3171    0.7199    3.2910 H         1 UNK         0.0000 
     96 H96         5.8290    3.1298    3.8658 H         1 UNK         0.0000 
     97 H97         4.0663    4.8395    3.5452 H         1 UNK         0.0000 
@<TRIPOS>BOND
     1    1    6 nc   
     2    1    8 nc   
     3    1   20 nc   
     4    1   25 nc   
     5    1   56 nc   
     6    1   58 nc   
     7    2    3 ar   
     8    2   62 1    
     9    2    9 ar   
    10    3   63 1    
    11    3    4 ar   
    12    4   64 1    
    13    4    5 ar   
    14    5    6 1    
    15    5    7 ar   
    16    7    9 ar   
    17    7    8 1    
    18    9   10 1    
    19   10   11 2    
    20   10   12 am   BACKBONE|DICT|INTERRES
    21   12   13 1    
    22   12   65 1    
    23   13   67 1    
    24   13   14 1    
    25   13   66 1    
    26   14   68 1    
    27   14   15 1    
    28   14   69 1    
    29   15   16 1    
    30   15   70 1    
    31   15   71 1    
    32   16   17 1    
    33   16   72 1    
    34   16   73 1    
    35   17   18 1    
    36   17   19 1    
    37   17   34 1    
    38   19   20 2    
    39   19   21 am   BACKBONE|DICT|INTERRES
    40   21   22 1    
    41   21   74 1    
    42   22   23 1    
    43   22   24 1    
    44   22   27 1    
    45   24   25 1    
    46   24   26 2    
    47   27   75 1    
    48   27   28 1    
    49   27   76 1    
    50   28   29 ar   
    51   28   33 ar   
    52   29   77 1    
    53   29   30 ar   
    54   30   31 ar   
    55   30   78 1    
    56   31   32 ar   
    57   31   79 1    
    58   32   33 ar   
    59   32   80 1    
    60   33   81 1    
    61   34   35 am   BACKBONE|DICT|INTERRES
    62   34   82 1    
    63   35   36 2    
    64   35   37 1    
    65   37   38 1    
    66   37   39 1    
    67   37   43 1    
    68   39   41 1    
    69   39   40 1    
    70   39   42 1    
    71   43   83 1    
    72   43   44 1    
    73   43   84 1    
    74   44   45 1    
    75   44   85 1    
    76   44   86 1    
    77   45   46 1    
    78   45   87 1    
    79   45   88 1    
    80   46   47 1    
    81   46   89 1    
    82   46   90 1    
    83   47   91 1    
    84   47   48 am   BACKBONE|DICT|INTERRES
    85   48   50 1    
    86   48   49 2    
    87   50   92 1    
    88   50   93 1    
    89   50   51 1    
    90   51   52 am   BACKBONE|DICT|INTERRES
    91   51   94 1    
    92   52   54 1    
    93   52   53 2    
    94   54   61 ar   
    95   54   55 ar   
    96   55   57 ar   
    97   55   56 1    
    98   57   59 ar   
    99   57   58 1    
   100   59   95 1    
   101   59   60 ar   
   102   60   96 1    
   103   60   61 ar   
   104   61   97 1    
@<TRIPOS>SUBSTRUCTURE
     1 UNK         1 GROUP             0       ****    0 ROOT    
