@<TRIPOS>MOLECULE
061_c1
112   117    1
SMALL
USER_CHARGES


@<TRIPOS>ATOM
      1 Fe1        -0.5332   -3.2338    0.0091 Fe        1 UNK         0.0000 
      2 C2         -3.6245   -3.0894   -3.0184 C.3       1 UNK         0.0000 
      3 C3         -2.7816   -2.7646   -1.7769 C.2       1 UNK         0.0000 
      4 O4         -2.2803   -3.6826   -1.1076 O.co2     1 UNK         0.0000 
      5 N5         -2.4758   -1.4976   -1.3828 N.am      1 UNK         0.0000 
      6 O6         -1.7936   -1.2674   -0.2585 O.co2     1 UNK         0.0000 
      7 C7         -2.6397   -0.2924   -2.1993 C.3       1 UNK         0.0000 
      8 C8         -1.3274    0.4805   -2.5598 C.3       1 UNK         0.0000 
      9 C9         -1.1398    1.8324   -1.8095 C.3       1 UNK         0.0000 
     10 C10        -0.0157    2.7114   -2.4450 C.3       1 UNK         0.0000 
     11 H11        -0.1899    2.5036   -3.4994 H         1 UNK         0.0000 
     12 C12        -0.2230    4.2480   -2.5323 C.2       1 UNK         0.0000 
     13 O13        -0.3303    4.7478   -3.6512 O.2       1 UNK         0.0000 
     14 N14        -0.1866    4.9998   -1.4213 N.am      1 UNK         0.0000 
     15 C15         0.0361    6.4597   -1.5248 C.3       1 UNK         0.0000 
     16 H16         0.7102    6.6263   -2.3694 H         1 UNK         0.0000 
     17 C17        -1.2583    7.2690   -1.8618 C.3       1 UNK         0.0000 
     18 O18        -0.9673    8.4559   -2.5829 O.3       1 UNK         0.0000 
     19 C19         0.8568    6.9649   -0.3312 C.2       1 UNK         0.0000 
     20 O20         2.0761    7.0883   -0.4509 O.2       1 UNK         0.0000 
     21 N21         0.2146    7.2184    0.8175 N.am      1 UNK         0.0000 
     22 C22         0.8708    7.7000    2.0290 C.3       1 UNK         0.0000 
     23 H23         1.9556    7.7091    1.9114 H         1 UNK         0.0000 
     24 C24         0.4613    9.1760    2.2585 C.3       1 UNK         0.0000 
     25 O25        -0.9447    9.3784    2.2216 O.3       1 UNK         0.0000 
     26 C26         0.5686    6.7247    3.1772 C.2       1 UNK         0.0000 
     27 O27        -0.2316    7.0187    4.0599 O.2       1 UNK         0.0000 
     28 N28         1.1944    5.5397    3.1302 N.am      1 UNK         0.0000 
     29 C29         0.9850    4.4535    4.0733 C.3       1 UNK         0.0000 
     30 C30         1.9574    3.3684    3.6157 C.2       1 UNK         0.0000 
     31 O31         3.1345    3.6780    3.4381 O.2       1 UNK         0.0000 
     32 N32         1.5010    2.1145    3.4355 N.am      1 UNK         0.0000 
     33 C33         2.3894    0.9938    3.0824 C.3       1 UNK         0.0000 
     34 H34         3.2472    1.1564    3.7374 H         1 UNK         0.0000 
     35 C35         3.0571    1.0895    1.6896 C.2       1 UNK         0.0000 
     36 O36         4.2670    0.8841    1.6261 O.2       1 UNK         0.0000 
     37 N37         2.3453    1.5047    0.6287 N.am      1 UNK         0.0000 
     38 C38         2.0717    0.6795   -0.5728 C.3       1 UNK         0.0000 
     39 H39         1.0269    0.3760   -0.5649 H         1 UNK         0.0000 
     40 C40         2.3290    1.6225   -1.7709 C.2       1 UNK         0.0000 
     41 O41         3.4986    1.7428   -2.1133 O.2       1 UNK         0.0000 
     42 N42         1.4161    2.3498   -2.4430 N.am      1 UNK         0.0000 
     43 C43         2.9686   -0.6235   -0.6796 C.3       1 UNK         0.0000 
     44 C44         3.0587   -1.3940   -2.0361 C.3       1 UNK         0.0000 
     45 C45         3.0959   -2.9624   -1.9141 C.3       1 UNK         0.0000 
     46 N46         1.8258   -3.6260   -1.5364 N.am      1 UNK         0.0000 
     47 O47         0.8145   -2.7965   -1.3550 O.co2     1 UNK         0.0000 
     48 C48         1.6936   -4.9301   -1.1807 C.2       1 UNK         0.0000 
     49 O49         0.6610   -5.2166   -0.5527 O.co2     1 UNK         0.0000 
     50 C50         2.6911   -6.0166   -1.5506 C.3       1 UNK         0.0000 
     51 C51         1.9489   -0.4577    3.4653 C.3       1 UNK         0.0000 
     52 C52         0.4809   -0.7745    3.8844 C.3       1 UNK         0.0000 
     53 C53         0.2170   -2.3313    4.0093 C.3       1 UNK         0.0000 
     54 N54        -0.1122   -3.0501    2.7522 N.am      1 UNK         0.0000 
     55 O55         0.2818   -2.4238    1.6534 O.co2     1 UNK         0.0000 
     56 C56        -0.8170   -4.2203    2.6507 C.2       1 UNK         0.0000 
     57 O57        -1.1132   -4.5197    1.4856 O.co2     1 UNK         0.0000 
     58 C58        -1.1425   -5.1562    3.8458 C.3       1 UNK         0.0000 
     59 C59        -1.8348   -6.5382    3.5047 C.3       1 UNK         0.0000 
     60 C60        -3.3402   -6.5000    3.8267 C.3       1 UNK         0.0000 
     61 C61        -1.1117   -7.7379    4.1758 C.3       1 UNK         0.0000 
     62 C62        -1.7874   -9.1303    4.1085 C.3       1 UNK         0.0000 
     63 O63        -2.7575   -9.2714    5.1334 O.3       1 UNK         0.0000 
     64 H64        -3.9081   -4.1447   -3.0172 H         1 UNK         0.0000 
     65 H65        -4.5493   -2.5150   -2.9929 H         1 UNK         0.0000 
     66 H66        -3.1085   -2.8810   -3.9627 H         1 UNK         0.0000 
     67 H67        -3.3652    0.3515   -1.6990 H         1 UNK         0.0000 
     68 H68        -3.1387   -0.5543   -3.1325 H         1 UNK         0.0000 
     69 H69        -0.4641   -0.1543   -2.3454 H         1 UNK         0.0000 
     70 H70        -1.3264    0.6324   -3.6436 H         1 UNK         0.0000 
     71 H71        -2.0777    2.4025   -1.8890 H         1 UNK         0.0000 
     72 H72        -0.9717    1.6540   -0.7399 H         1 UNK         0.0000 
     73 H73        -0.0971    4.5688   -0.5132 H         1 UNK         0.0000 
     74 H74        -1.9636    6.6881   -2.4563 H         1 UNK         0.0000 
     75 H75        -1.7816    7.5809   -0.9573 H         1 UNK         0.0000 
     76 H76        -1.7605    8.7683   -3.0311 H         1 UNK         0.0000 
     77 H77        -0.7884    7.1433    0.8961 H         1 UNK         0.0000 
     78 H78         0.9208    9.7970    1.4875 H         1 UNK         0.0000 
     79 H79         0.8535    9.5326    3.2128 H         1 UNK         0.0000 
     80 H80        -1.1678   10.0588    2.8654 H         1 UNK         0.0000 
     81 H81         1.9117    5.3820    2.4342 H         1 UNK         0.0000 
     82 H82        -0.0591    4.1254    4.0888 H         1 UNK         0.0000 
     83 H83         1.2717    4.7665    5.0826 H         1 UNK         0.0000 
     84 H84         0.5197    1.9216    3.5271 H         1 UNK         0.0000 
     85 H85         2.8724    2.2766    0.2401 H         1 UNK         0.0000 
     86 H86         1.8897    2.8665   -3.1719 H         1 UNK         0.0000 
     87 H87         2.6532   -1.3093    0.1116 H         1 UNK         0.0000 
     88 H88         4.0050   -0.3512   -0.4575 H         1 UNK         0.0000 
     89 H89         3.9526   -1.0609   -2.5717 H         1 UNK         0.0000 
     90 H90         2.2343   -1.1493   -2.7007 H         1 UNK         0.0000 
     91 H91         3.3859   -3.3844   -2.8777 H         1 UNK         0.0000 
     92 H92         3.8990   -3.2834   -1.2302 H         1 UNK         0.0000 
     93 H93         3.2858   -5.7470   -2.4137 H         1 UNK         0.0000 
     94 H94         3.3469   -6.2726   -0.7244 H         1 UNK         0.0000 
     95 H95         2.1386   -6.9080   -1.8296 H         1 UNK         0.0000 
     96 H96         2.5902   -0.7728    4.2935 H         1 UNK         0.0000 
     97 H97         2.2437   -1.1278    2.6557 H         1 UNK         0.0000 
     98 H98        -0.2216   -0.3339    3.1756 H         1 UNK         0.0000 
     99 H99         0.2830   -0.3014    4.8526 H         1 UNK         0.0000 
    100 H100       -0.5314   -2.5259    4.7831 H         1 UNK         0.0000 
    101 H101        1.1229   -2.8142    4.3842 H         1 UNK         0.0000 
    102 H102       -1.7015   -4.6299    4.6229 H         1 UNK         0.0000 
    103 H103       -3.8093   -5.6355    3.3568 H         1 UNK         0.0000 
    104 H104       -3.8634   -7.3841    3.4559 H         1 UNK         0.0000 
    105 H105       -3.5229   -6.4567    4.9033 H         1 UNK         0.0000 
    106 H106       -0.8873   -7.5081    5.2191 H         1 UNK         0.0000 
    107 H107       -0.1466   -7.8366    3.6768 H         1 UNK         0.0000 
    108 H108       -2.2642   -9.2937    3.1373 H         1 UNK         0.0000 
    109 H109       -1.0322   -9.9172    4.1981 H         1 UNK         0.0000 
    110 H110       -2.9918  -10.1995    5.2420 H         1 UNK         0.0000 
    111 H111       -0.1712   -5.3516    4.3015 H         1 UNK         0.0000 
    112 H112       -1.7691   -6.7448    2.4381 H         1 UNK         0.0000 
@<TRIPOS>BOND
     1    1    4 nc   
     2    1    6 nc   
     3    1   47 nc   
     4    1   49 nc   
     5    1   55 nc   
     6    1   57 nc   
     7    2   65 1    
     8    2   64 1    
     9    2    3 1    
    10    2   66 1    
    11    3    5 am   BACKBONE|DICT|INTERRES
    12    3    4 2    
    13    5    6 1    
    14    5    7 1    
    15    7   67 1    
    16    7    8 1    
    17    7   68 1    
    18    8    9 1    
    19    8   69 1    
    20    8   70 1    
    21    9   10 1    
    22    9   71 1    
    23    9   72 1    
    24   10   11 1    
    25   10   42 1    
    26   10   12 1    
    27   12   14 am   BACKBONE|DICT|INTERRES
    28   12   13 2    
    29   14   15 1    
    30   14   73 1    
    31   15   16 1    
    32   15   19 1    
    33   15   17 1    
    34   17   75 1    
    35   17   18 1    
    36   17   74 1    
    37   18   76 1    
    38   19   21 am   BACKBONE|DICT|INTERRES
    39   19   20 2    
    40   21   77 1    
    41   21   22 1    
    42   22   23 1    
    43   22   24 1    
    44   22   26 1    
    45   24   25 1    
    46   24   79 1    
    47   24   78 1    
    48   25   80 1    
    49   26   28 am   BACKBONE|DICT|INTERRES
    50   26   27 2    
    51   28   29 1    
    52   28   81 1    
    53   29   30 1    
    54   29   83 1    
    55   29   82 1    
    56   30   31 2    
    57   30   32 am   BACKBONE|DICT|INTERRES
    58   32   84 1    
    59   32   33 1    
    60   33   34 1    
    61   33   51 1    
    62   33   35 1    
    63   35   36 2    
    64   35   37 am   BACKBONE|DICT|INTERRES
    65   37   38 1    
    66   37   85 1    
    67   38   39 1    
    68   38   40 1    
    69   38   43 1    
    70   40   41 2    
    71   40   42 am   BACKBONE|DICT|INTERRES
    72   42   86 1    
    73   43   87 1    
    74   43   44 1    
    75   43   88 1    
    76   44   89 1    
    77   44   45 1    
    78   44   90 1    
    79   45   92 1    
    80   45   46 1    
    81   45   91 1    
    82   46   48 am   BACKBONE|DICT|INTERRES
    83   46   47 1    
    84   48   50 1    
    85   48   49 2    
    86   50   94 1    
    87   50   93 1    
    88   50   95 1    
    89   51   52 1    
    90   51   97 1    
    91   51   96 1    
    92   52   98 1    
    93   52   99 1    
    94   52   53 1    
    95   53  101 1    
    96   53  100 1    
    97   53   54 1    
    98   54   55 1    
    99   54   56 am   BACKBONE|DICT|INTERRES
   100   56   58 1    
   101   56   57 2    
   102   58  102 1    
   103   58   59 1    
   104   58  111 1    
   105   59   60 1    
   106   59   61 1    
   107   59  112 1    
   108   60  103 1    
   109   60  105 1    
   110   60  104 1    
   111   61   62 1    
   112   61  106 1    
   113   61  107 1    
   114   62   63 1    
   115   62  108 1    
   116   62  109 1    
   117   63  110 1    
@<TRIPOS>SUBSTRUCTURE
     1 UNK         1 GROUP             0       ****    0 ROOT    
