@<TRIPOS>MOLECULE
181_c1
74   82    1
SMALL
USER_CHARGES


@<TRIPOS>ATOM
      1 O1         -0.1612    4.8728  -12.9239 O.co2     1 UNK         0.0000 
      2 C2         -0.3186    4.9988  -14.1880 C.2       1 UNK         0.0000 
      3 O3         -0.0349    6.0380  -14.8150 O.co2     1 UNK         0.0000 
      4 C4         -0.6620    3.6856  -14.9825 C.3       1 UNK         0.0000 
      5 C5         -2.1523    3.6996  -15.4205 C.3       1 UNK         0.0000 
      6 N6         -0.3723    2.5310  -14.1270 N.pl3     1 UNK         0.0000 
      7 C7          0.2399    1.5939  -14.7504 C.2       1 UNK         0.0000 
      8 S8          0.3189    1.7724  -16.5303 S.3       1 UNK         0.0000 
      9 C9          0.2455    3.5537  -16.2257 C.3       1 UNK         0.0000 
     10 C10         0.8931    0.3990  -13.8810 C.3       1 UNK         0.0000 
     11 C11        -0.2487   -0.6498  -13.6965 C.3       1 UNK         0.0000 
     12 C12         1.9592   -0.3630  -14.7220 C.3       1 UNK         0.0000 
     13 C13         1.4703    0.8809  -12.4164 C.3       1 UNK         0.0000 
     14 H14         1.7541    1.6052  -13.1238 H         1 UNK         0.0000 
     15 O15         0.3863    1.1075  -11.5432 O.co2     1 UNK         0.0000 
     16 C16         2.6768    1.8624  -11.9704 C.3       1 UNK         0.0000 
     17 H17         3.4977    1.9572  -12.7184 H         1 UNK         0.0000 
     18 N18         2.0796    3.2364  -11.6489 N.3       1 UNK         0.0000 
     19 C19         2.7023    4.3011  -12.4450 C.3       1 UNK         0.0000 
     20 C20         3.5131    1.3568  -10.7825 C.3       1 UNK         0.0000 
     21 S21         2.7753    2.0590   -9.3204 S.3       1 UNK         0.0000 
     22 C22         2.2374    3.5383  -10.1994 C.3       1 UNK         0.0000 
     23 H23         3.0858    4.2122  -10.0390 H         1 UNK         0.0000 
     24 C24         0.9932    4.1160   -9.4707 C.3       1 UNK         0.0000 
     25 H25         0.8926    3.6136   -8.4963 H         1 UNK         0.0000 
     26 N26        -0.2305    3.8942  -10.1952 N.pl3     1 UNK         0.0000 
     27 C27        -1.1957    4.6670   -9.8316 C.2       1 UNK         0.0000 
     28 S28        -0.6135    5.9611   -8.6946 S.3       1 UNK         0.0000 
     29 C29         1.0840    5.5905   -9.1270 C.3       1 UNK         0.0000 
     30 C30        -2.6149    4.5721  -10.3886 C.ar      1 UNK         0.0000 
     31 C31        -3.7063    5.3804   -9.9274 C.ar      1 UNK         0.0000 
     32 C32        -3.5956    6.3766   -8.7632 C.3       1 UNK         0.0000 
     33 C33        -4.8486    7.1527   -8.3158 C.3       1 UNK         0.0000 
     34 C34        -4.5226    8.0790   -7.1383 C.3       1 UNK         0.0000 
     35 C35        -5.7443    8.8857   -6.6924 C.3       1 UNK         0.0000 
     36 C36        -5.4210    9.8048   -5.5096 C.3       1 UNK         0.0000 
     37 C37        -4.9640    5.2890  -10.5567 C.ar      1 UNK         0.0000 
     38 C38        -5.1880    4.4337  -11.6145 C.ar      1 UNK         0.0000 
     39 C39        -4.1704    3.6064  -12.0503 C.ar      1 UNK         0.0000 
     40 C40        -2.9127    3.6565  -11.4570 C.ar      1 UNK         0.0000 
     41 O41        -2.0974    2.8041  -11.9473 O.co2     1 UNK         0.0000 
     42 H42        -2.4393    2.7893  -15.9546 H         1 UNK         0.0000 
     43 H43        -2.3196    4.5359  -16.1068 H         1 UNK         0.0000 
     44 H44        -2.8446    3.8149  -14.5811 H         1 UNK         0.0000 
     45 H45        -0.1599    4.0826  -17.0925 H         1 UNK         0.0000 
     46 H46         1.2718    3.8983  -16.0191 H         1 UNK         0.0000 
     47 H47        -0.5945   -1.0393  -14.6558 H         1 UNK         0.0000 
     48 H48        -1.1294   -0.2292  -13.2025 H         1 UNK         0.0000 
     49 H49         0.0617   -1.5138  -13.0954 H         1 UNK         0.0000 
     50 H50         1.5174   -0.7953  -15.6235 H         1 UNK         0.0000 
     51 H51         2.3971   -1.2077  -14.1645 H         1 UNK         0.0000 
     52 H52         2.7754    0.2918  -15.0416 H         1 UNK         0.0000 
     53 H53         2.5240    4.1563  -13.5089 H         1 UNK         0.0000 
     54 H54         3.7806    4.3141  -12.2741 H         1 UNK         0.0000 
     55 H55         2.3069    5.2804  -12.1656 H         1 UNK         0.0000 
     56 H56         4.5323    1.7632  -10.8329 H         1 UNK         0.0000 
     57 H57         3.5969    0.2661  -10.7021 H         1 UNK         0.0000 
     58 H58         1.7438    5.7776   -8.2740 H         1 UNK         0.0000 
     59 H59         1.3884    6.2153   -9.9764 H         1 UNK         0.0000 
     60 H60        -3.2128    5.8408   -7.8918 H         1 UNK         0.0000 
     61 H61        -2.8817    7.1406   -9.0667 H         1 UNK         0.0000 
     62 H62        -5.6484    6.4659   -8.0302 H         1 UNK         0.0000 
     63 H63        -5.2231    7.7561   -9.1460 H         1 UNK         0.0000 
     64 H64        -4.1452    7.4859   -6.3021 H         1 UNK         0.0000 
     65 H65        -3.7177    8.7604   -7.4236 H         1 UNK         0.0000 
     66 H66        -6.5496    8.2040   -6.4103 H         1 UNK         0.0000 
     67 H67        -6.1141    9.4861   -7.5264 H         1 UNK         0.0000 
     68 H68        -5.0775    9.2264   -4.6475 H         1 UNK         0.0000 
     69 H69        -6.3101   10.3647   -5.2095 H         1 UNK         0.0000 
     70 H70        -4.6397   10.5236   -5.7720 H         1 UNK         0.0000 
     71 H71        -5.7996    5.8942  -10.2386 H         1 UNK         0.0000 
     72 H72        -6.1611    4.3945  -12.0843 H         1 UNK         0.0000 
     73 H73        -4.3739    2.9058  -12.8516 H         1 UNK         0.0000 
     74 Fe74       -0.1478    3.0145  -12.0356 Fe        1 UNK         0.0000 
@<TRIPOS>BOND
     1    1    2 1    
     2    1   74 nc   
     3    2    3 2    
     4    2    4 1    
     5    4    6 1    
     6    4    9 1    
     7    4    5 1    
     8    5   42 1    
     9    5   43 1    
    10    5   44 1    
    11    6    7 2    
    12    6   74 nc   
    13    7    8 1    
    14    7   10 1    
    15    8    9 1    
    16    9   45 1    
    17    9   46 1    
    18   10   11 1    
    19   10   12 1    
    20   10   13 1    
    21   11   47 1    
    22   11   48 1    
    23   11   49 1    
    24   12   50 1    
    25   12   51 1    
    26   12   52 1    
    27   13   14 1    
    28   13   15 1    
    29   13   16 1    
    30   15   74 nc   
    31   16   18 1    
    32   16   20 1    
    33   16   17 1    
    34   18   19 1    
    35   18   22 1    
    36   18   74 nc   
    37   19   53 1    
    38   19   54 1    
    39   19   55 1    
    40   20   21 1    
    41   20   56 1    
    42   20   57 1    
    43   21   22 1    
    44   22   23 1    
    45   22   24 1    
    46   24   26 1    
    47   24   29 1    
    48   24   25 1    
    49   26   27 2    
    50   26   74 nc   
    51   27   28 1    
    52   27   30 1    
    53   28   29 1    
    54   29   58 1    
    55   29   59 1    
    56   30   31 ar   
    57   30   40 ar   
    58   31   32 1    
    59   31   37 ar   
    60   32   33 1    
    61   32   60 1    
    62   32   61 1    
    63   33   34 1    
    64   33   62 1    
    65   33   63 1    
    66   34   35 1    
    67   34   64 1    
    68   34   65 1    
    69   35   36 1    
    70   35   66 1    
    71   35   67 1    
    72   36   68 1    
    73   36   69 1    
    74   36   70 1    
    75   37   38 ar   
    76   37   71 1    
    77   38   39 ar   
    78   38   72 1    
    79   39   40 ar   
    80   39   73 1    
    81   40   41 1    
    82   41   74 nc   
@<TRIPOS>SUBSTRUCTURE
     1 UNK         1 GROUP             0       ****    0 ROOT    
