@<TRIPOS>MOLECULE
210_c1
105   114    1
SMALL
USER_CHARGES


@<TRIPOS>ATOM
      1 O1         17.7404   10.1994  -18.0162 O.co2     1 UNK         0.0000 
      2 C2         16.7022   10.9905  -18.5229 C.3       1 UNK         0.0000 
      3 C3         15.2881   10.4244  -18.3212 C.3       1 UNK         0.0000 
      4 C4         15.0869    9.0365  -18.9111 C.2       1 UNK         0.0000 
      5 C5         14.5096    7.9739  -18.3213 C.2       1 UNK         0.0000 
      6 C6         13.9062    7.9898  -16.9926 C.2       1 UNK         0.0000 
      7 C7         13.6526    6.9159  -16.2094 C.2       1 UNK         0.0000 
      8 C8         14.0311    5.4987  -16.6255 C.3       1 UNK         0.0000 
      9 C9         13.0334    7.1600  -14.9029 C.2       1 UNK         0.0000 
     10 C10        12.9433    6.2636  -13.9016 C.2       1 UNK         0.0000 
     11 C11        12.2985    6.5053  -12.5469 C.3       1 UNK         0.0000 
     12 C12        12.8846    7.6466  -11.6799 C.3       1 UNK         0.0000 
     13 C13        12.1002    8.9785  -11.7497 C.3       1 UNK         0.0000 
     14 H14        11.1668    8.9481  -11.1864 H         1 UNK         0.0000 
     15 O15        11.9844    9.6423  -12.9829 O.3       1 UNK         0.0000 
     16 C16        12.7354   10.3263  -12.0117 C.3       1 UNK         0.0000 
     17 H17        12.2348   11.1654  -11.5234 H         1 UNK         0.0000 
     18 C18        14.2368   10.5903  -12.3430 C.3       1 UNK         0.0000 
     19 H19        14.8182   10.3020  -11.4633 H         1 UNK         0.0000 
     20 C20        14.4439   12.1112  -12.5169 C.3       1 UNK         0.0000 
     21 C21        14.7851    9.7999  -13.5787 C.3       1 UNK         0.0000 
     22 C22        16.2314   10.0707  -14.0737 C.3       1 UNK         0.0000 
     23 H23        16.1908   11.0868  -14.4713 H         1 UNK         0.0000 
     24 O24        16.5762    9.2251  -15.2117 O.3       1 UNK         0.0000 
     25 C25        17.4163   10.0118  -13.0449 C.3       1 UNK         0.0000 
     26 H26        17.3151   10.7472  -12.2414 H         1 UNK         0.0000 
     27 O27        18.5892   10.2930  -13.7865 O.co2     1 UNK         0.0000 
     28 C28        17.5503    8.5281  -12.5228 C.3       1 UNK         0.0000 
     29 C29        17.9026    7.6116  -13.7166 C.3       1 UNK         0.0000 
     30 H30        18.8334    8.0882  -13.9386 H         1 UNK         0.0000 
     31 O31        18.4921    6.2901  -13.5237 O.3       1 UNK         0.0000 
     32 C32        16.8988    7.7883  -14.9424 C.3       1 UNK         0.0000 
     33 H33        15.9814    7.2385  -14.7306 H         1 UNK         0.0000 
     34 C34        17.5592    7.2115  -16.2043 C.3       1 UNK         0.0000 
     35 H35        16.8397    7.1050  -17.0252 H         1 UNK         0.0000 
     36 O36        18.5928    8.0861  -16.5485 O.co2     1 UNK         0.0000 
     37 C37        18.2957    5.8779  -15.8933 C.3       1 UNK         0.0000 
     38 C38        19.2858    5.9657  -14.6795 C.3       1 UNK         0.0000 
     39 O39        20.3128    6.9539  -14.8344 O.3       1 UNK         0.0000 
     40 C40        21.2071    6.8323  -15.9111 C.3       1 UNK         0.0000 
     41 H41        20.7135    6.5625  -16.8425 H         1 UNK         0.0000 
     42 C42        22.1161    5.6587  -15.4587 C.3       1 UNK         0.0000 
     43 C43        21.3061    4.4841  -14.8627 C.2       1 UNK         0.0000 
     44 C44        20.0168    4.6517  -14.4686 C.2       1 UNK         0.0000 
     45 C45        22.0284    3.1777  -14.6061 C.3       1 UNK         0.0000 
     46 C46        21.9152    8.2207  -16.1371 C.3       1 UNK         0.0000 
     47 C47        21.2064    9.3638  -16.9754 C.3       1 UNK         0.0000 
     48 H48        20.6874    8.9093  -17.8204 H         1 UNK         0.0000 
     49 O49        20.2667   10.2477  -16.2723 O.3       1 UNK         0.0000 
     50 C50        20.3321   11.5801  -16.8181 C.3       1 UNK         0.0000 
     51 H51        19.8524   11.6008  -17.8023 H         1 UNK         0.0000 
     52 C52        21.8299   11.7344  -16.9934 C.3       1 UNK         0.0000 
     53 C53        22.2022   10.3783  -17.5875 C.3       1 UNK         0.0000 
     54 C54        19.5001   12.5649  -15.9373 C.3       1 UNK         0.0000 
     55 H55        19.9865   12.6197  -14.9654 H         1 UNK         0.0000 
     56 O56        18.1673   12.1321  -15.8057 O.co2     1 UNK         0.0000 
     57 C57        19.4006   13.9679  -16.5118 C.2       1 UNK         0.0000 
     58 C58        19.7528   15.1631  -15.9657 C.2       1 UNK         0.0000 
     59 C59        20.3758   15.3431  -14.5886 C.3       1 UNK         0.0000 
     60 C60        19.5053   16.4565  -16.7227 C.3       1 UNK         0.0000 
     61 H61        16.8369   11.1020  -19.6016 H         1 UNK         0.0000 
     62 H62        16.7315   12.0169  -18.1521 H         1 UNK         0.0000 
     63 H63        15.0505   10.4306  -17.2585 H         1 UNK         0.0000 
     64 H64        14.5605   11.0850  -18.7922 H         1 UNK         0.0000 
     65 H65        15.4946    8.8962  -19.8990 H         1 UNK         0.0000 
     66 H66        14.4996    7.0630  -18.8930 H         1 UNK         0.0000 
     67 H67        13.6438    8.9631  -16.6002 H         1 UNK         0.0000 
     68 H68        14.5597    5.4164  -17.5741 H         1 UNK         0.0000 
     69 H69        13.1384    4.8787  -16.6529 H         1 UNK         0.0000 
     70 H70        14.6827    5.0631  -15.8684 H         1 UNK         0.0000 
     71 H71        12.6203    8.1386  -14.7186 H         1 UNK         0.0000 
     72 H72        13.3550    5.2765  -14.0472 H         1 UNK         0.0000 
     73 H73        12.4401    5.5687  -12.0015 H         1 UNK         0.0000 
     74 H74        11.2242    6.6276  -12.6801 H         1 UNK         0.0000 
     75 H75        12.8199    7.3279  -10.6322 H         1 UNK         0.0000 
     76 H76        13.9579    7.7448  -11.8232 H         1 UNK         0.0000 
     77 H77        15.4957   12.3579  -12.6612 H         1 UNK         0.0000 
     78 H78        14.1199   12.6671  -11.6342 H         1 UNK         0.0000 
     79 H79        13.9003   12.4908  -13.3826 H         1 UNK         0.0000 
     80 H80        14.1193   10.0034  -14.4205 H         1 UNK         0.0000 
     81 H81        14.6981    8.7345  -13.4250 H         1 UNK         0.0000 
     82 H82        16.6321    8.1877  -12.0461 H         1 UNK         0.0000 
     83 H83        18.3690    8.4898  -11.8031 H         1 UNK         0.0000 
     84 H84        18.8184    5.5151  -16.7770 H         1 UNK         0.0000 
     85 H85        17.5515    5.1213  -15.6408 H         1 UNK         0.0000 
     86 H86        22.7872    6.0123  -14.6732 H         1 UNK         0.0000 
     87 H87        22.7535    5.3228  -16.2767 H         1 UNK         0.0000 
     88 H88        19.4547    3.8399  -14.0181 H         1 UNK         0.0000 
     89 H89        23.0866    3.2459  -14.8621 H         1 UNK         0.0000 
     90 H90        21.5808    2.3897  -15.2125 H         1 UNK         0.0000 
     91 H91        21.9499    2.8913  -13.5556 H         1 UNK         0.0000 
     92 H92        22.8220    7.9814  -16.6941 H         1 UNK         0.0000 
     93 H93        22.2574    8.6252  -15.1824 H         1 UNK         0.0000 
     94 H94        22.1021   12.5904  -17.6165 H         1 UNK         0.0000 
     95 H95        22.3204   11.9285  -16.0383 H         1 UNK         0.0000 
     96 H96        22.0105   10.4703  -18.6600 H         1 UNK         0.0000 
     97 H97        23.2555   10.1363  -17.4376 H         1 UNK         0.0000 
     98 H98        18.9626   13.9817  -17.5001 H         1 UNK         0.0000 
     99 H99        19.6947   14.9742  -13.8196 H         1 UNK         0.0000 
    100 H100       20.5878   16.3892  -14.3780 H         1 UNK         0.0000 
    101 H101       21.3053   14.7799  -14.5104 H         1 UNK         0.0000 
    102 H102       19.0076   16.2759  -17.6752 H         1 UNK         0.0000 
    103 H103       20.4410   16.9726  -16.9298 H         1 UNK         0.0000 
    104 H104       18.8572   17.1160  -16.1441 H         1 UNK         0.0000 
    105 Fe105      18.2874   10.0341  -15.9619 Fe        1 UNK         0.0000 
@<TRIPOS>BOND
     1    1    2 1    
     2    1  105 nc   
     3    2    3 1    
     4    2   61 1    
     5    2   62 1    
     6    3    4 1    
     7    3   63 1    
     8    3   64 1    
     9    4    5 2    
    10    4   65 1    
    11    5    6 1    
    12    5   66 1    
    13    6    7 2    
    14    6   67 1    
    15    7    8 1    
    16    7    9 1    
    17    8   68 1    
    18    8   69 1    
    19    8   70 1    
    20    9   10 2    
    21    9   71 1    
    22   10   11 1    
    23   10   72 1    
    24   11   12 1    
    25   11   73 1    
    26   11   74 1    
    27   12   75 1    
    28   12   76 1    
    29   12   13 1    
    30   13   15 1    
    31   13   16 1    
    32   13   14 1    
    33   15   16 1    
    34   16   17 1    
    35   16   18 1    
    36   18   20 1    
    37   18   21 1    
    38   18   19 1    
    39   20   77 1    
    40   20   78 1    
    41   20   79 1    
    42   21   80 1    
    43   21   81 1    
    44   21   22 1    
    45   22   24 1    
    46   22   23 1    
    47   22   25 1    
    48   24   32 1    
    49   24  105 nc   
    50   25   26 1    
    51   25   27 1    
    52   25   28 1    
    53   27  105 nc   
    54   28   29 1    
    55   28   82 1    
    56   28   83 1    
    57   29   30 1    
    58   29   31 1    
    59   29   32 1    
    60   31   38 1    
    61   32   33 1    
    62   32   34 1    
    63   34   37 1    
    64   34   36 1    
    65   34   35 1    
    66   36  105 nc   
    67   37   38 1    
    68   37   84 1    
    69   37   85 1    
    70   38   39 1    
    71   38   44 1    
    72   39   40 1    
    73   40   42 1    
    74   40   46 1    
    75   40   41 1    
    76   42   43 1    
    77   42   86 1    
    78   42   87 1    
    79   43   44 2    
    80   43   45 1    
    81   44   88 1    
    82   45   89 1    
    83   45   90 1    
    84   45   91 1    
    85   46   92 1    
    86   46   93 1    
    87   46   47 1    
    88   47   49 1    
    89   47   53 1    
    90   47   48 1    
    91   49   50 1    
    92   49  105 nc   
    93   50   52 1    
    94   50   54 1    
    95   50   51 1    
    96   52   53 1    
    97   52   94 1    
    98   52   95 1    
    99   53   96 1    
   100   53   97 1    
   101   54   57 1    
   102   54   56 1    
   103   54   55 1    
   104   56  105 nc   
   105   57   58 2    
   106   57   98 1    
   107   58   59 1    
   108   58   60 1    
   109   59   99 1    
   110   59  100 1    
   111   59  101 1    
   112   60  102 1    
   113   60  103 1    
   114   60  104 1    
@<TRIPOS>SUBSTRUCTURE
     1 UNK         1 GROUP             0       ****    0 ROOT    
